*SOIL-PLANT-ATMOSPHERE MODULE OUTPUT FILE

*DSSAT Cropping System Model Ver. 4.8.5.000 -release  NOV 27, 2025 15:48:48

*RUN   1        : 1                         WHAPS048 TUDU1701    1
 MODEL          : WHAPS048 - Wheat
 EXPERIMENT     : TUDU1701 WH
 DATA PATH      :
 TREATMENT  1   : 1                         WHAPS048
  
!                                                                                                                                                                                        Soil evaporation (mm/d) by soil depth (cm):
!                                                                                                                                                                                        0-5    5-15   15-20   20-30   30-40   40-50   50-60   60-70   70-90  90-210
@YEAR DOY   DAS   SRAA  TMAXA  TMINA    REFA    EOAA    EOPA    EOSA    ETAA    EPAA    ESAA    EFAA    EMAA    EOAC    ETAC    EPAC    ESAC    EFAC    EMAC    KCAA    KBSA    KEAA    ES1D    ES2D    ES3D    ES4D    ES5D    ES6D    ES7D    ES8D    ES9D  ES10D   TRWUD   TWUPD
   16 298     1   7.00  17.00   7.00 -99.000   1.496   0.000   1.496   1.496   0.000   1.496   0.000   0.000    1.50    1.50    0.00    1.50    0.00    0.00 -99.000 -99.000 -99.000   0.275   0.206   0.073   0.112   0.097   0.081   0.070   0.062   0.107   0.414   0.000   0.000
   16 299     2   3.00  14.00   7.00 -99.000   0.618   0.000   0.618   0.618   0.000   0.618   0.000   0.000    2.11    2.11    0.00    2.11    0.00    0.00 -99.000 -99.000 -99.000   0.121   0.087   0.030   0.045   0.039   0.033   0.028   0.025   0.043   0.167   0.000   0.000
   16 300     3   4.00  12.00   3.00 -99.000   0.767   0.000   0.767   0.767   0.000   0.767   0.000   0.000    2.88    2.88    0.00    2.88    0.00    0.00 -99.000 -99.000 -99.000   0.143   0.110   0.037   0.057   0.049   0.041   0.035   0.031   0.054   0.209   0.000   0.000
   16 301     4   7.00  11.00   1.00 -99.000   1.288   0.000   1.288   1.288   0.000   1.288   0.000   0.000    4.17    4.17    0.00    4.17    0.00    0.00 -99.000 -99.000 -99.000   0.235   0.186   0.064   0.097   0.082   0.069   0.059   0.052   0.091   0.353   0.000   0.000
   16 302     5   8.00  11.00   0.00 -99.000   1.453   0.000   1.453   1.152   0.000   1.152   0.000   0.000    5.62    5.32    0.00    5.32    0.00    0.00 -99.000 -99.000 -99.000   0.949   0.125   0.021   0.020   0.011   0.007   0.004   0.003   0.004   0.008   0.000   0.000
   16 303     6   5.00  11.00   2.00 -99.000   0.925   0.000   0.925   0.925   0.000   0.925   0.000   0.000    6.55    6.25    0.00    6.25    0.00    0.00 -99.000 -99.000 -99.000   0.748   0.108   0.018   0.017   0.010   0.006   0.004   0.003   0.004   0.007   0.000   0.000
   16 304     7   8.00  11.00   0.00 -99.000   1.442   0.000   1.442   0.984   0.000   0.984   0.000   0.000    7.99    7.23    0.00    7.23    0.00    0.00 -99.000 -99.000 -99.000   0.782   0.123   0.021   0.020   0.011   0.007   0.004   0.003   0.004   0.008   0.000   0.000
   16 305     8   8.00  10.00   0.00 -99.000   1.413   0.000   1.413   0.906   0.000   0.906   0.000   0.000    9.40    8.14    0.00    8.14    0.00    0.00 -99.000 -99.000 -99.000   0.705   0.123   0.021   0.020   0.011   0.007   0.004   0.003   0.004   0.008   0.000   0.000
   16 306     9   5.00   6.00   0.00 -99.000   0.820   0.000   0.820   0.820   0.000   0.820   0.000   0.000   10.22    8.96    0.00    8.96    0.00    0.00 -99.000 -99.000 -99.000   0.624   0.120   0.020   0.019   0.011   0.007   0.004   0.003   0.004   0.008   0.000   0.000
   16 307    10   3.00   9.00   2.00 -99.000   0.530   0.000   0.530   0.530   0.000   0.530   0.000   0.000   10.75    9.49    0.00    9.49    0.00    0.00 -99.000 -99.000 -99.000   0.394   0.083   0.014   0.014   0.008   0.005   0.003   0.002   0.003   0.006   0.000   0.000
   16 308    11   5.00   8.00  -1.00 -99.000   0.837   0.000   0.837   0.735   0.000   0.735   0.000   0.000   11.59   10.22    0.00   10.22    0.00    0.00 -99.000 -99.000 -99.000   0.536   0.121   0.020   0.020   0.011   0.007   0.004   0.003   0.004   0.008   0.000   0.000
   16 309    12   6.00   8.00  -2.00 -99.000   0.990   0.000   0.990   0.681   0.000   0.681   0.000   0.000   12.58   10.90    0.00   10.90    0.00    0.00 -99.000 -99.000 -99.000   0.483   0.120   0.020   0.020   0.011   0.007   0.004   0.003   0.004   0.008   0.000   0.000
   16 310    13   3.00  12.00   2.00 -99.000   0.554   0.000   0.554   0.554   0.000   0.554   0.000   0.000   13.13   11.46    0.00   11.46    0.00    0.00 -99.000 -99.000 -99.000   0.444   0.067   0.011   0.011   0.006   0.004   0.002   0.002   0.002   0.004   0.000   0.000
   16 311    14   2.00   6.00   2.00 -99.000   0.344   0.000   0.344   0.344   0.000   0.344   0.000   0.000   13.48   11.80    0.00   11.80    0.00    0.00 -99.000 -99.000 -99.000   0.076   0.050   0.017   0.025   0.020   0.017   0.015   0.013   0.023   0.088   0.000   0.000
   16 312    15   4.00   3.00  -1.00 -99.000   0.360   0.000   0.360   0.360   0.000   0.360   0.000   0.000   13.84   12.16    0.00   12.16    0.00    0.00 -99.000 -99.000 -99.000   0.074   0.053   0.018   0.027   0.022   0.018   0.016   0.014   0.024   0.093   0.000   0.000
   16 313    16   4.00   3.00  -1.00 -99.000   0.356   0.004   0.353   0.356   0.004   0.353   0.000   0.000   14.19   12.52    0.00   12.51    0.00    0.00 -99.000 -99.000 -99.000   0.067   0.051   0.018   0.027   0.022   0.018   0.016   0.014   0.025   0.094   0.000   0.007
   16 314    17   5.00   4.00   0.00 -99.000   0.549   0.006   0.543   0.543   0.001   0.543   0.000   0.000   14.74   13.06    0.00   13.06    0.00    0.00 -99.000 -99.000 -99.000   0.107   0.078   0.027   0.042   0.033   0.028   0.025   0.022   0.038   0.143   0.000   0.007
   16 315    18   3.00   6.00   2.00 -99.000   0.515   0.006   0.509   0.510   0.001   0.509   0.000   0.000   15.26   13.57    0.01   13.56    0.00    0.00 -99.000 -99.000 -99.000   0.110   0.074   0.026   0.038   0.030   0.026   0.022   0.020   0.034   0.129   0.000   0.007
   16 316    19   2.00   5.00   1.00 -99.000   0.336   0.004   0.332   0.333   0.001   0.332   0.000   0.000   15.59   13.90    0.01   13.90    0.00    0.00 -99.000 -99.000 -99.000   0.075   0.049   0.018   0.025   0.020   0.016   0.014   0.013   0.021   0.081   0.000   0.007
   16 317    20   3.00   3.00  -1.00 -99.000   0.270   0.003   0.266   0.267   0.001   0.266   0.000   0.000   15.86   14.17    0.01   14.16    0.00    0.00 -99.000 -99.000 -99.000   0.054   0.039   0.014   0.021   0.016   0.014   0.012   0.011   0.018   0.069   0.000   0.007
   16 318    21   4.00   1.00  -2.00 -99.000   0.236   0.003   0.233   0.233   0.001   0.233   0.000   0.000   16.10   14.40    0.01   14.40    0.00    0.00 -99.000 -99.000 -99.000   0.044   0.033   0.012   0.018   0.014   0.012   0.011   0.009   0.016   0.063   0.000   0.007
   16 319    22   5.00   2.00  -3.00 -99.000   0.354   0.004   0.349   0.350   0.000   0.349   0.000   0.000   16.45   14.75    0.01   14.74    0.00    0.00 -99.000 -99.000 -99.000   0.064   0.050   0.017   0.027   0.022   0.018   0.016   0.014   0.025   0.096   0.000   0.007
   16 320    23   3.00   5.00  -1.00 -99.000   0.484   0.006   0.478   0.478   0.001   0.478   0.000   0.000   16.93   15.23    0.01   15.22    0.00    0.00 -99.000 -99.000 -99.000   0.095   0.067   0.023   0.036   0.029   0.025   0.022   0.019   0.033   0.128   0.000   0.007
   16 321    24   1.00   9.00   5.00 -99.000   0.188   0.002   0.185   0.186   0.001   0.185   0.000   0.000   17.12   15.42    0.01   15.41    0.00    0.00 -99.000 -99.000 -99.000   0.041   0.027   0.009   0.014   0.011   0.009   0.008   0.007   0.012   0.047   0.000   0.007
   16 322    25   3.00  10.00   4.00 -99.000   0.569   0.007   0.561   0.562   0.001   0.561   0.000   0.000   17.69   15.98    0.01   15.97    0.00    0.00 -99.000 -99.000 -99.000   0.113   0.082   0.029   0.043   0.034   0.028   0.025   0.022   0.038   0.148   0.000   0.007
   16 323    26   2.00  12.00   3.00 -99.000   0.384   0.005   0.379   0.382   0.003   0.379   0.000   0.000   18.07   16.36    0.01   16.35    0.00    0.00 -99.000 -99.000 -99.000   0.081   0.055   0.019   0.028   0.022   0.019   0.017   0.015   0.025   0.098   0.000   0.007
   16 324    27   1.00   7.00   0.00 -99.000   0.172   0.002   0.170   0.173   0.003   0.170   0.000   0.000   18.25   16.53    0.02   16.52    0.00    0.00 -99.000 -99.000 -99.000   0.038   0.025   0.009   0.013   0.010   0.008   0.007   0.006   0.011   0.042   0.000   0.007
   16 325    28   6.00   9.00   0.00 -99.000   1.069   0.015   1.054   1.055   0.001   1.054   0.000   0.000   19.31   17.59    0.02   17.57    0.00    0.00 -99.000 -99.000 -99.000   0.211   0.154   0.055   0.081   0.064   0.053   0.047   0.041   0.071   0.276   0.000   0.007
   16 326    29   4.00  15.00   1.00 -99.000   0.788   0.012   0.776   0.783   0.007   0.776   0.000   0.000   20.10   18.37    0.03   18.35    0.00    0.00 -99.000 -99.000 -99.000   0.146   0.111   0.039   0.060   0.048   0.040   0.035   0.032   0.054   0.210   0.001   0.007
   16 327    30   3.00  13.00   2.00 -99.000   0.576   0.009   0.567   0.579   0.013   0.567   0.000   0.000   20.68   18.95    0.04   18.91    0.00    0.00 -99.000 -99.000 -99.000   0.103   0.080   0.028   0.044   0.035   0.030   0.026   0.023   0.040   0.156   0.001   0.007
   16 328    31   4.00  11.00   0.00 -99.000   0.725   0.012   0.713   0.720   0.007   0.713   0.000   0.000   21.40   19.67    0.05   19.63    0.00    0.00 -99.000 -99.000 -99.000   0.128   0.101   0.035   0.056   0.045   0.038   0.033   0.030   0.051   0.198   0.001   0.007
   16 329    32   2.00   5.00   4.00 -99.000   0.342   0.006   0.336   0.342   0.006   0.336   0.000   0.000   21.75   20.01    0.05   19.96    0.00    0.00 -99.000 -99.000 -99.000   0.060   0.047   0.016   0.026   0.021   0.018   0.016   0.014   0.024   0.094   0.001   0.007
   16 330    33   2.00   7.00   4.00 -99.000   0.354   0.006   0.348   0.348   0.000   0.348   0.000   0.000   22.10   20.36    0.05   20.31    0.00    0.00 -99.000 -99.000 -99.000   0.061   0.049   0.017   0.027   0.022   0.019   0.016   0.015   0.025   0.097   0.000   0.007
   16 331    34   1.00   6.00   5.00 -99.000   0.176   0.003   0.173   0.174   0.001   0.173   0.000   0.000   22.28   20.54    0.05   20.48    0.00    0.00 -99.000 -99.000 -99.000   0.030   0.024   0.008   0.014   0.011   0.009   0.008   0.007   0.012   0.048   0.000   0.006
   16 332    35   3.00   7.00   0.00 -99.000   0.506   0.009   0.497   0.497   0.000   0.497   0.000   0.000   22.78   21.03    0.05   20.98    0.00    0.00 -99.000 -99.000 -99.000   0.087   0.070   0.024   0.039   0.031   0.027   0.023   0.021   0.036   0.139   0.000   0.006
   16 333    36   5.00   1.00  -3.00 -99.000   0.287   0.005   0.282   0.284   0.002   0.282   0.000   0.000   23.07   21.32    0.05   21.26    0.00    0.00 -99.000 -99.000 -99.000   0.049   0.040   0.014   0.022   0.018   0.015   0.013   0.012   0.020   0.079   0.000   0.006
   16 334    37   6.00   0.00  -6.00 -99.000   0.270   0.005   0.265   0.265   0.001   0.265   0.000   0.000   23.34   21.58    0.05   21.53    0.00    0.00 -99.000 -99.000 -99.000   0.046   0.037   0.013   0.021   0.017   0.014   0.012   0.011   0.019   0.074   0.000   0.006
   16 335    38   5.00   2.00  -7.00 -99.000   0.332   0.006   0.326   0.327   0.001   0.326   0.000   0.000   23.67   21.91    0.06   21.85    0.00    0.00 -99.000 -99.000 -99.000   0.056   0.046   0.016   0.026   0.020   0.017   0.015   0.014   0.024   0.092   0.000   0.006
   16 336    39   3.00   4.00   0.00 -99.000   0.327   0.006   0.321   0.322   0.001   0.321   0.000   0.000   24.00   22.23    0.06   22.17    0.00    0.00 -99.000 -99.000 -99.000   0.055   0.045   0.016   0.025   0.020   0.017   0.015   0.013   0.023   0.090   0.000   0.006
   16 337    40   3.00   5.00   0.00 -99.000   0.487   0.009   0.478   0.479   0.001   0.478   0.000   0.000   24.49   22.71    0.06   22.65    0.00    0.00 -99.000 -99.000 -99.000   0.085   0.067   0.023   0.037   0.030   0.025   0.022   0.020   0.034   0.134   0.000   0.006
   16 338    41   5.00   0.00  -3.00 -99.000   0.235   0.004   0.231   0.232   0.001   0.231   0.000   0.000   24.72   22.94    0.06   22.88    0.00    0.00 -99.000 -99.000 -99.000   0.041   0.032   0.011   0.018   0.014   0.012   0.011   0.010   0.017   0.064   0.000   0.006
   16 339    42   3.00   0.00  -7.00 -99.000   0.133   0.003   0.131   0.131   0.000   0.131   0.000   0.000   24.85   23.07    0.06   23.01    0.00    0.00 -99.000 -99.000 -99.000   0.023   0.018   0.006   0.010   0.008   0.007   0.006   0.005   0.009   0.036   0.000   0.006
   16 340    43   2.00  -2.00  -3.00 -99.000   0.063   0.001   0.062   0.063   0.001   0.062   0.000   0.000   24.92   23.14    0.06   23.08    0.00    0.00 -99.000 -99.000 -99.000   0.011   0.009   0.003   0.005   0.004   0.003   0.003   0.003   0.004   0.017   0.000   0.006
   16 341    44   4.00   0.00  -5.00 -99.000   0.183   0.003   0.179   0.179   0.000   0.179   0.000   0.000   25.10   23.32    0.06   23.26    0.00    0.00 -99.000 -99.000 -99.000   0.032   0.025   0.009   0.014   0.011   0.010   0.008   0.007   0.013   0.050   0.000   0.006
   16 342    45   3.00  -1.00  -3.00 -99.000   0.115   0.002   0.113   0.114   0.001   0.113   0.000   0.000   25.21   23.43    0.06   23.37    0.00    0.00 -99.000 -99.000 -99.000   0.093   0.012   0.002   0.002   0.001   0.001   0.000   0.000   0.000   0.001   0.000   0.006
   16 343    46   5.00   3.00  -4.00 -99.000   0.424   0.008   0.416   0.416   0.000   0.416   0.000   0.000   25.64   23.85    0.06   23.78    0.00    0.00 -99.000 -99.000 -99.000   0.341   0.045   0.008   0.008   0.004   0.003   0.002   0.001   0.002   0.003   0.000   0.006
   16 344    47   4.00   7.00  -4.00 -99.000   0.642   0.012   0.630   0.631   0.001   0.630   0.000   0.000   26.28   24.48    0.06   24.41    0.00    0.00 -99.000 -99.000 -99.000   0.513   0.070   0.012   0.012   0.006   0.004   0.003   0.002   0.003   0.005   0.000   0.006
   16 345    48   5.00   8.00  -2.00 -99.000   0.836   0.016   0.820   0.822   0.002   0.820   0.000   0.000   27.12   25.30    0.06   25.23    0.00    0.00 -99.000 -99.000 -99.000   0.662   0.095   0.016   0.016   0.009   0.005   0.004   0.003   0.003   0.007   0.000   0.006
   16 346    49   2.00   5.00  -3.00 -99.000   0.311   0.006   0.305   0.311   0.007   0.305   0.000   0.000   27.43   25.61    0.07   25.54    0.00    0.00 -99.000 -99.000 -99.000   0.245   0.036   0.006   0.006   0.003   0.002   0.001   0.001   0.001   0.003   0.001   0.006
   16 347    50   2.00   4.00  -1.00 -99.000   0.215   0.004   0.210   0.212   0.001   0.210   0.000   0.000   27.64   25.82    0.07   25.75    0.00    0.00 -99.000 -99.000 -99.000   0.170   0.024   0.004   0.004   0.002   0.001   0.001   0.001   0.001   0.002   0.000   0.006
   16 348    51   4.00   5.00  -3.00 -99.000   0.624   0.013   0.611   0.612   0.001   0.611   0.000   0.000   28.27   26.43    0.07   26.36    0.00    0.00 -99.000 -99.000 -99.000   0.492   0.071   0.012   0.012   0.006   0.004   0.003   0.002   0.003   0.005   0.000   0.005
   16 349    52   3.00   8.00   0.00 -99.000   0.512   0.011   0.501   0.504   0.003   0.501   0.000   0.000   28.78   26.94    0.08   26.86    0.00    0.00 -99.000 -99.000 -99.000   0.400   0.061   0.010   0.011   0.006   0.003   0.002   0.002   0.002   0.004   0.000   0.005
   16 350    53   1.00   4.00   0.00 -99.000   0.108   0.002   0.106   0.110   0.004   0.106   0.000   0.000   28.89   27.05    0.08   26.97    0.00    0.00 -99.000 -99.000 -99.000   0.084   0.013   0.002   0.002   0.001   0.001   0.001   0.000   0.000   0.001   0.000   0.005
   16 351    54   1.00   0.00  -1.00 -99.000   0.048   0.001   0.047   0.048   0.001   0.047   0.000   0.000   28.93   27.09    0.08   27.01    0.00    0.00 -99.000 -99.000 -99.000   0.037   0.006   0.001   0.001   0.001   0.000   0.000   0.000   0.000   0.000   0.000   0.005
   16 352    55   2.00   0.00  -2.00 -99.000   0.095   0.002   0.092   0.093   0.000   0.092   0.000   0.000   29.03   27.19    0.08   27.11    0.00    0.00 -99.000 -99.000 -99.000   0.073   0.012   0.002   0.002   0.001   0.001   0.000   0.000   0.000   0.001   0.000   0.005
   16 353    56   1.00   1.00  -1.00 -99.000   0.059   0.001   0.057   0.058   0.000   0.057   0.000   0.000   29.09   27.24    0.08   27.16    0.00    0.00 -99.000 -99.000 -99.000   0.045   0.007   0.001   0.001   0.001   0.000   0.000   0.000   0.000   0.001   0.000   0.005
   16 354    57   2.00   1.00  -1.00 -99.000   0.117   0.003   0.115   0.115   0.000   0.115   0.000   0.000   29.20   27.36    0.08   27.28    0.00    0.00 -99.000 -99.000 -99.000   0.090   0.015   0.003   0.003   0.001   0.001   0.001   0.000   0.001   0.001   0.000   0.005
   16 355    58   2.00   0.00  -2.00 -99.000   0.094   0.002   0.092   0.093   0.000   0.092   0.000   0.000   29.30   27.45    0.08   27.37    0.00    0.00 -99.000 -99.000 -99.000   0.072   0.012   0.002   0.002   0.001   0.001   0.000   0.000   0.000   0.001   0.000   0.005
   16 356    59   1.00  -1.00  -2.00 -99.000   0.039   0.001   0.038   0.038   0.000   0.038   0.000   0.000   29.34   27.49    0.08   27.41    0.00    0.00 -99.000 -99.000 -99.000   0.030   0.005   0.001   0.001   0.000   0.000   0.000   0.000   0.000   0.000   0.000   0.005
   16 357    60   3.00  -1.00  -3.00 -99.000   0.114   0.003   0.112   0.112   0.000   0.112   0.000   0.000   29.45   27.60    0.08   27.52    0.00    0.00 -99.000 -99.000 -99.000   0.087   0.015   0.002   0.003   0.001   0.001   0.001   0.000   0.001   0.001   0.000   0.005
   16 358    61   2.00   2.00  -2.00 -99.000   0.141   0.003   0.138   0.138   0.000   0.138   0.000   0.000   29.59   27.74    0.08   27.66    0.00    0.00 -99.000 -99.000 -99.000   0.108   0.018   0.003   0.003   0.002   0.001   0.001   0.001   0.001   0.001   0.000   0.005
   16 359    62   2.00   6.00   0.00 -99.000   0.328   0.007   0.321   0.321   0.001   0.321   0.000   0.000   29.92   28.06    0.08   27.98    0.00    0.00 -99.000 -99.000 -99.000   0.249   0.043   0.007   0.008   0.004   0.002   0.002   0.001   0.002   0.003   0.000   0.005
   16 360    63   2.00   8.00   4.00 -99.000   0.356   0.008   0.348   0.349   0.002   0.348   0.000   0.000   30.28   28.41    0.08   28.33    0.00    0.00 -99.000 -99.000 -99.000   0.268   0.048   0.008   0.008   0.004   0.003   0.002   0.001   0.002   0.003   0.000   0.005
   16 361    64   2.00  10.00   2.00 -99.000   0.359   0.008   0.351   0.353   0.002   0.351   0.000   0.000   30.64   28.76    0.09   28.68    0.00    0.00 -99.000 -99.000 -99.000   0.273   0.047   0.008   0.008   0.004   0.003   0.002   0.001   0.002   0.003   0.000   0.005
   16 362    65   3.00   4.00   0.00 -99.000   0.324   0.008   0.316   0.320   0.004   0.316   0.000   0.000   30.96   29.08    0.09   28.99    0.00    0.00 -99.000 -99.000 -99.000   0.248   0.041   0.007   0.007   0.004   0.002   0.002   0.001   0.002   0.003   0.000   0.005
   16 363    66   2.00   3.00   0.00 -99.000   0.177   0.004   0.173   0.174   0.001   0.173   0.000   0.000   31.14   29.26    0.09   29.17    0.00    0.00 -99.000 -99.000 -99.000   0.134   0.023   0.004   0.004   0.002   0.001   0.001   0.001   0.001   0.002   0.000   0.005
   16 364    67   4.00   4.00  -3.00 -99.000   0.415   0.010   0.405   0.405   0.001   0.405   0.000   0.000   31.55   29.66    0.09   29.57    0.00    0.00 -99.000 -99.000 -99.000   0.313   0.055   0.009   0.010   0.005   0.003   0.002   0.002   0.002   0.004   0.000   0.005
   16 365    68   3.00   2.00  -6.00 -99.000   0.200   0.005   0.195   0.197   0.003   0.195   0.000   0.000   31.75   29.86    0.09   29.77    0.00    0.00 -99.000 -99.000 -99.000   0.149   0.027   0.005   0.005   0.003   0.002   0.001   0.001   0.001   0.002   0.000   0.005
   16 366    69   3.00  -3.00  -5.00 -99.000   0.073   0.002   0.072   0.073   0.001   0.072   0.000   0.000   31.82   29.93    0.10   29.84    0.00    0.00 -99.000 -99.000 -99.000   0.055   0.010   0.002   0.002   0.001   0.001   0.000   0.000   0.000   0.001   0.000   0.005
   17 001    70   4.00  -2.00  -8.00 -99.000   0.115   0.003   0.112   0.112   0.000   0.112   0.000   0.000   31.94   30.05    0.10   29.95    0.00    0.00 -99.000 -99.000 -99.000   0.085   0.016   0.003   0.003   0.001   0.001   0.001   0.000   0.001   0.001   0.000   0.005
   17 002    71   1.00   0.00  -9.00 -99.000   0.042   0.001   0.041   0.042   0.001   0.041   0.000   0.000   31.98   30.09    0.10   29.99    0.00    0.00 -99.000 -99.000 -99.000   0.031   0.006   0.001   0.001   0.001   0.000   0.000   0.000   0.000   0.000   0.000   0.005
   17 003    72   2.00   0.00  -2.00 -99.000   0.094   0.002   0.092   0.093   0.001   0.092   0.000   0.000   32.08   30.18    0.10   30.08    0.00    0.00 -99.000 -99.000 -99.000   0.070   0.013   0.002   0.002   0.001   0.001   0.001   0.000   0.000   0.001   0.000   0.004
   17 004    73   1.00   0.00  -1.00 -99.000   0.048   0.001   0.046   0.047   0.000   0.046   0.000   0.000   32.12   30.23    0.10   30.13    0.00    0.00 -99.000 -99.000 -99.000   0.035   0.007   0.001   0.001   0.001   0.000   0.000   0.000   0.000   0.000   0.000   0.004
   17 005    74   2.00   0.00  -8.00 -99.000   0.086   0.002   0.084   0.084   0.000   0.084   0.000   0.000   32.21   30.31    0.10   30.21    0.00    0.00 -99.000 -99.000 -99.000   0.063   0.012   0.002   0.002   0.001   0.001   0.000   0.000   0.000   0.001   0.000   0.004
   17 006    75   4.00  -7.00 -18.00 -99.000   0.033   0.001   0.032   0.033   0.001   0.032   0.000   0.000   32.24   30.34    0.10   30.25    0.00    0.00 -99.000 -99.000 -99.000   0.024   0.005   0.001   0.001   0.000   0.000   0.000   0.000   0.000   0.000   0.000   0.003
   17 007    76   2.00  -5.00 -18.00 -99.000   0.025   0.001   0.025   0.026   0.001   0.025   0.000   0.000   32.27   30.37    0.10   30.27    0.00    0.00 -99.000 -99.000 -99.000   0.019   0.004   0.001   0.001   0.000   0.000   0.000   0.000   0.000   0.000   0.000   0.003
   17 008    77   2.00  -1.00  -5.00 -99.000   0.073   0.002   0.072   0.073   0.001   0.072   0.000   0.000   32.34   30.44    0.10   30.34    0.00    0.00 -99.000 -99.000 -99.000   0.054   0.011   0.002   0.002   0.001   0.001   0.000   0.000   0.000   0.001   0.000   0.003
   17 009    78   1.00  -1.00  -4.00 -99.000   0.037   0.001   0.036   0.037   0.001   0.036   0.000   0.000   32.38   30.48    0.10   30.38    0.00    0.00 -99.000 -99.000 -99.000   0.027   0.005   0.001   0.001   0.001   0.000   0.000   0.000   0.000   0.000   0.000   0.003
   17 010    79   3.00  -2.00  -7.00 -99.000   0.087   0.002   0.085   0.085   0.000   0.085   0.000   0.000   32.47   30.57    0.10   30.46    0.00    0.00 -99.000 -99.000 -99.000   0.064   0.013   0.002   0.002   0.001   0.001   0.001   0.000   0.000   0.001   0.000   0.003
   17 011    80   1.00   2.00  -8.00 -99.000   0.064   0.002   0.063   0.063   0.001   0.063   0.000   0.000   32.53   30.63    0.10   30.53    0.00    0.00 -99.000 -99.000 -99.000   0.048   0.009   0.002   0.002   0.001   0.001   0.000   0.000   0.000   0.001   0.000   0.002
   17 012    81   2.00   3.00   1.00 -99.000   0.179   0.004   0.175   0.176   0.001   0.175   0.000   0.000   32.71   30.80    0.10   30.70    0.00    0.00 -99.000 -99.000 -99.000   0.033   0.024   0.008   0.013   0.011   0.009   0.008   0.007   0.012   0.048   0.000   0.004
   17 013    82   2.00   4.00  -2.00 -99.000   0.216   0.005   0.210   0.211   0.000   0.210   0.000   0.000   32.92   31.02    0.10   30.91    0.00    0.00 -99.000 -99.000 -99.000   0.043   0.029   0.010   0.016   0.013   0.011   0.009   0.008   0.015   0.057   0.000   0.004
   17 014    83   2.00   0.00  -2.00 -99.000   0.096   0.002   0.094   0.095   0.001   0.094   0.000   0.000   33.02   31.11    0.11   31.00    0.00    0.00 -99.000 -99.000 -99.000   0.018   0.013   0.004   0.007   0.006   0.005   0.004   0.004   0.007   0.026   0.000   0.004
   17 015    84   3.00  -1.00  -4.00 -99.000   0.114   0.003   0.111   0.111   0.000   0.111   0.000   0.000   33.13   31.22    0.11   31.12    0.00    0.00 -99.000 -99.000 -99.000   0.020   0.016   0.005   0.009   0.007   0.006   0.005   0.005   0.008   0.031   0.000   0.004
   17 016    85   3.00  -2.00  -6.00 -99.000   0.090   0.002   0.088   0.088   0.000   0.088   0.000   0.000   33.22   31.31    0.11   31.20    0.00    0.00 -99.000 -99.000 -99.000   0.016   0.012   0.004   0.007   0.005   0.005   0.004   0.004   0.006   0.024   0.000   0.004
   17 017    86   4.00  -3.00  -8.00 -99.000   0.095   0.002   0.092   0.093   0.000   0.092   0.000   0.000   33.32   31.40    0.11   31.30    0.00    0.00 -99.000 -99.000 -99.000   0.017   0.013   0.004   0.007   0.006   0.005   0.004   0.004   0.007   0.026   0.000   0.004
   17 018    87   3.00  -3.00  -6.00 -99.000   0.073   0.002   0.071   0.072   0.001   0.071   0.000   0.000   33.39   31.47    0.11   31.37    0.00    0.00 -99.000 -99.000 -99.000   0.013   0.010   0.003   0.006   0.004   0.004   0.003   0.003   0.005   0.020   0.000   0.004
   17 019    88   6.00  -3.00  -9.00 -99.000   0.140   0.004   0.136   0.136   0.000   0.136   0.000   0.000   33.53   31.61    0.11   31.50    0.00    0.00 -99.000 -99.000 -99.000   0.024   0.019   0.007   0.011   0.008   0.007   0.006   0.006   0.010   0.038   0.000   0.004
   17 020    89   6.00  -2.00 -11.00 -99.000   0.166   0.004   0.161   0.162   0.001   0.161   0.000   0.000   33.70   31.77    0.11   31.66    0.00    0.00 -99.000 -99.000 -99.000   0.029   0.023   0.008   0.013   0.010   0.009   0.008   0.007   0.012   0.045   0.000   0.004
   17 021    90   7.00  -5.00 -15.00 -99.000   0.096   0.002   0.094   0.095   0.001   0.094   0.000   0.000   33.79   31.87    0.11   31.76    0.00    0.00 -99.000 -99.000 -99.000   0.017   0.013   0.005   0.007   0.006   0.005   0.004   0.004   0.007   0.026   0.000   0.004
   17 022    91   5.00  -6.00 -15.00 -99.000   0.056   0.001   0.054   0.055   0.001   0.054   0.000   0.000   33.85   31.92    0.11   31.81    0.00    0.00 -99.000 -99.000 -99.000   0.010   0.008   0.003   0.004   0.003   0.003   0.003   0.002   0.004   0.015   0.000   0.004
   17 023    92   5.00  -8.00 -17.00 -99.000   0.035   0.001   0.034   0.035   0.001   0.034   0.000   0.000   33.88   31.96    0.11   31.85    0.00    0.00 -99.000 -99.000 -99.000   0.006   0.005   0.002   0.003   0.002   0.002   0.002   0.001   0.002   0.009   0.000   0.004
   17 024    93   2.00  -7.00 -12.00 -99.000   0.019   0.000   0.019   0.019   0.001   0.019   0.000   0.000   33.90   31.98    0.11   31.86    0.00    0.00 -99.000 -99.000 -99.000   0.003   0.003   0.001   0.001   0.001   0.001   0.001   0.001   0.001   0.005   0.000   0.004
   17 025    94   2.00  -3.00 -10.00 -99.000   0.046   0.001   0.045   0.045   0.000   0.045   0.000   0.000   33.95   32.02    0.11   31.91    0.00    0.00 -99.000 -99.000 -99.000   0.008   0.006   0.002   0.003   0.003   0.002   0.002   0.002   0.003   0.012   0.000   0.004
   17 026    95   5.00  -1.00  -9.00 -99.000   0.175   0.004   0.171   0.171   0.001   0.171   0.000   0.000   34.12   32.19    0.11   32.08    0.00    0.00 -99.000 -99.000 -99.000   0.030   0.024   0.008   0.013   0.011   0.009   0.008   0.007   0.012   0.048   0.000   0.004
   17 027    96   7.00   0.00 -12.00 -99.000   0.286   0.007   0.279   0.280   0.001   0.279   0.000   0.000   34.41   32.47    0.11   32.36    0.00    0.00 -99.000 -99.000 -99.000   0.049   0.039   0.014   0.022   0.017   0.015   0.013   0.012   0.020   0.078   0.000   0.004
   17 028    97   6.00  -1.00 -11.00 -99.000   0.203   0.005   0.198   0.199   0.001   0.198   0.000   0.000   34.61   32.67    0.12   32.56    0.00    0.00 -99.000 -99.000 -99.000   0.035   0.028   0.010   0.016   0.012   0.011   0.009   0.008   0.014   0.055   0.000   0.004
   17 029    98   7.00   1.00 -12.00 -99.000   0.351   0.009   0.342   0.343   0.001   0.342   0.000   0.000   34.96   33.02    0.12   32.90    0.00    0.00 -99.000 -99.000 -99.000   0.060   0.048   0.017   0.027   0.021   0.018   0.016   0.014   0.025   0.096   0.000   0.004
   17 030    99   5.00   1.00 -10.00 -99.000   0.259   0.007   0.252   0.254   0.002   0.252   0.000   0.000   35.22   33.27    0.12   33.15    0.00    0.00 -99.000 -99.000 -99.000   0.044   0.036   0.012   0.020   0.016   0.013   0.012   0.011   0.018   0.071   0.000   0.003
   17 031   100   5.00   4.00   0.00 -99.000   0.544   0.014   0.531   0.532   0.001   0.531   0.000   0.000   35.77   33.80    0.12   33.68    0.00    0.00 -99.000 -99.000 -99.000   0.103   0.074   0.026   0.041   0.032   0.027   0.024   0.022   0.037   0.145   0.000   0.003
   17 032   101   3.00   2.00   0.00 -99.000   0.222   0.006   0.216   0.218   0.003   0.216   0.000   0.000   35.99   34.02    0.12   33.90    0.00    0.00 -99.000 -99.000 -99.000   0.042   0.030   0.010   0.017   0.013   0.011   0.010   0.009   0.015   0.059   0.000   0.003
   17 033   102   5.00   4.00   0.00 -99.000   0.548   0.015   0.533   0.534   0.001   0.533   0.000   0.000   36.54   34.55    0.12   34.43    0.00    0.00 -99.000 -99.000 -99.000   0.099   0.074   0.026   0.041   0.033   0.028   0.025   0.022   0.038   0.147   0.000   0.003
   17 034   103   3.00   4.00  -2.00 -99.000   0.319   0.009   0.310   0.313   0.003   0.310   0.000   0.000   36.86   34.87    0.12   34.74    0.00    0.00 -99.000 -99.000 -99.000   0.056   0.044   0.015   0.024   0.019   0.016   0.014   0.013   0.022   0.086   0.000   0.003
   17 035   104   6.00   6.00  -1.00 -99.000   0.982   0.028   0.954   0.956   0.002   0.954   0.000   0.000   37.84   35.82    0.13   35.70    0.00    0.00 -99.000 -99.000 -99.000   0.172   0.134   0.046   0.074   0.059   0.050   0.044   0.040   0.068   0.266   0.000   0.003
   17 036   105   7.00   8.00  -1.00 -99.000   1.186   0.035   1.151   1.159   0.007   1.151   0.000   0.000   39.02   36.98    0.13   36.85    0.00    0.00 -99.000 -99.000 -99.000   0.205   0.161   0.056   0.090   0.072   0.061   0.054   0.048   0.083   0.322   0.001   0.003
   17 037   106   3.00   3.00   0.00 -99.000   0.267   0.008   0.259   0.273   0.014   0.259   0.000   0.000   39.29   37.25    0.15   37.11    0.00    0.00 -99.000 -99.000 -99.000   0.212   0.028   0.005   0.005   0.003   0.002   0.001   0.001   0.001   0.002   0.001   0.003
   17 038   107   5.00   5.00   0.00 -99.000   0.810   0.026   0.784   0.785   0.001   0.784   0.000   0.000   40.10   38.04    0.15   37.89    0.00    0.00 -99.000 -99.000 -99.000   0.638   0.088   0.015   0.015   0.008   0.005   0.003   0.002   0.003   0.006   0.000   0.003
   17 039   108   4.00   2.00  -2.00 -99.000   0.283   0.009   0.274   0.278   0.005   0.274   0.000   0.000   40.39   38.32    0.15   38.16    0.00    0.00 -99.000 -99.000 -99.000   0.220   0.032   0.005   0.006   0.003   0.002   0.001   0.001   0.001   0.002   0.000   0.003
   17 040   109   4.00   0.00  -2.00 -99.000   0.189   0.006   0.183   0.184   0.001   0.183   0.000   0.000   40.57   38.50    0.16   38.35    0.00    0.00 -99.000 -99.000 -99.000   0.146   0.022   0.004   0.004   0.002   0.001   0.001   0.001   0.001   0.002   0.000   0.003
   17 041   110   3.00  -1.00  -3.00 -99.000   0.114   0.004   0.111   0.111   0.000   0.111   0.000   0.000   40.69   38.61    0.16   38.46    0.00    0.00 -99.000 -99.000 -99.000   0.088   0.013   0.002   0.002   0.001   0.001   0.001   0.000   0.000   0.001   0.000   0.003
   17 042   111   9.00   4.00  -5.00 -99.000   0.912   0.031   0.881   0.881   0.000   0.881   0.000   0.000   41.60   39.49    0.16   39.34    0.00    0.00 -99.000 -99.000 -99.000   0.701   0.108   0.018   0.019   0.010   0.006   0.004   0.003   0.004   0.008   0.000   0.003
   17 043   112   4.00   0.00  -1.00 -99.000   0.191   0.006   0.185   0.186   0.001   0.185   0.000   0.000   41.79   39.68    0.16   39.52    0.00    0.00 -99.000 -99.000 -99.000   0.145   0.024   0.004   0.004   0.002   0.001   0.001   0.001   0.001   0.002   0.000   0.003
   17 044   113   4.00   4.00  -1.00 -99.000   0.426   0.014   0.411   0.412   0.000   0.411   0.000   0.000   42.22   40.09    0.16   39.93    0.00    0.00 -99.000 -99.000 -99.000   0.320   0.054   0.009   0.010   0.005   0.003   0.002   0.002   0.002   0.004   0.000   0.003
   17 045   114   9.00   7.00  -4.00 -99.000   1.426   0.049   1.377   0.863   0.003   0.859   0.000   0.000   43.64   40.95    0.16   40.79    0.00    0.00 -99.000 -99.000 -99.000   0.663   0.117   0.020   0.021   0.011   0.007   0.005   0.003   0.004   0.009   0.000   0.003
   17 046   115   9.00   9.00  -5.00 -99.000   1.459   0.051   1.408   0.801   0.002   0.799   0.000   0.000   45.10   41.76    0.16   41.59    0.00    0.00 -99.000 -99.000 -99.000   0.604   0.116   0.020   0.021   0.011   0.007   0.005   0.003   0.004   0.009   0.000   0.003
   17 047   116  10.00  13.00  -3.00 -99.000   1.776   0.062   1.714   0.836   0.003   0.834   0.000   0.000   46.88   42.59    0.17   42.43    0.00    0.00 -99.000 -99.000 -99.000   0.639   0.116   0.020   0.021   0.011   0.007   0.005   0.003   0.004   0.009   0.000   0.001
   17 048   117   4.00   4.00   0.00 -99.000   0.430   0.017   0.414   0.465   0.051   0.414   0.000   0.000   47.31   43.06    0.22   42.84    0.00    0.00 -99.000 -99.000 -99.000   0.334   0.047   0.008   0.008   0.004   0.003   0.002   0.001   0.002   0.003   0.005   0.003
   17 049   118   5.00   6.00  -2.00 -99.000   0.807   0.032   0.775   0.778   0.003   0.775   0.000   0.000   48.12   43.83    0.22   43.61    0.00    0.00 -99.000 -99.000 -99.000   0.141   0.107   0.037   0.060   0.048   0.041   0.036   0.032   0.056   0.216   0.000   0.003
   17 050   119   7.00   5.00  -3.00 -99.000   1.092   0.045   1.047   1.056   0.009   1.047   0.000   0.000   49.21   44.89    0.23   44.66    0.00    0.00 -99.000 -99.000 -99.000   0.189   0.145   0.050   0.081   0.065   0.055   0.049   0.044   0.075   0.293   0.001   0.003
   17 051   120   7.00   8.00   2.00 -99.000   1.226   0.052   1.174   1.184   0.010   1.174   0.000   0.000   50.43   46.07    0.24   45.84    0.00    0.00 -99.000 -99.000 -99.000   0.218   0.163   0.056   0.090   0.072   0.062   0.054   0.048   0.084   0.326   0.001   0.003
   17 052   121   3.00   9.00   6.00 -99.000   0.561   0.025   0.535   0.550   0.015   0.535   0.000   0.000   50.99   46.62    0.25   46.37    0.00    0.00 -99.000 -99.000 -99.000   0.110   0.075   0.026   0.040   0.032   0.027   0.024   0.021   0.037   0.144   0.002   0.003
   17 053   122   4.00  11.00   7.00 -99.000   0.787   0.037   0.750   0.755   0.005   0.750   0.000   0.000   51.78   47.38    0.26   47.12    0.00    0.00 -99.000 -99.000 -99.000   0.150   0.105   0.036   0.057   0.045   0.038   0.034   0.030   0.052   0.202   0.000   0.003
   17 054   123   8.00  16.00   6.00 -99.000   1.668   0.083   1.585   1.596   0.011   1.585   0.000   0.000   53.45   48.98    0.27   48.71    0.00    0.00 -99.000 -99.000 -99.000   0.298   0.222   0.076   0.122   0.098   0.083   0.073   0.065   0.112   0.436   0.001   0.003
   17 055   124   6.00  11.00  -1.00 -99.000   1.069   0.059   1.010   1.076   0.066   1.010   0.000   0.000   54.52   50.05    0.34   49.72    0.00    0.00 -99.000 -99.000 -99.000   0.183   0.141   0.049   0.078   0.063   0.053   0.047   0.042   0.072   0.281   0.007   0.003
   17 056   125  12.00   8.00  -3.00 -99.000   1.975   0.116   1.859   1.148   0.041   1.107   0.000   0.000   56.49   51.20    0.38   50.82    0.00    0.00 -99.000 -99.000 -99.000   0.908   0.120   0.020   0.021   0.011   0.007   0.005   0.003   0.004   0.009   0.004   0.003
   17 057   126   8.00  10.00  -1.00 -99.000   1.391   0.089   1.302   1.063   0.042   1.022   0.000   0.000   57.88   52.26    0.42   51.84    0.00    0.00 -99.000 -99.000 -99.000   0.823   0.119   0.020   0.021   0.011   0.007   0.005   0.003   0.004   0.009   0.004   0.003
   17 058   127  12.00  13.00  -3.00 -99.000   2.138   0.147   1.991   0.991   0.048   0.944   0.000   0.000   60.02   53.25    0.47   52.79    0.00    0.00 -99.000 -99.000 -99.000   0.746   0.118   0.020   0.021   0.011   0.007   0.005   0.003   0.004   0.009   0.005   0.003
   17 059   128   3.00   6.00   0.00 -99.000   0.487   0.037   0.450   0.563   0.113   0.450   0.000   0.000   60.51   53.82    0.58   53.24    0.00    0.00 -99.000 -99.000 -99.000   0.085   0.064   0.022   0.035   0.028   0.023   0.020   0.018   0.031   0.123   0.011   0.003
   17 060   129   7.00   7.00   2.00 -99.000   1.216   0.095   1.121   1.130   0.009   1.121   0.000   0.000   61.72   54.95    0.59   54.36    0.00    0.00 -99.000 -99.000 -99.000   0.256   0.162   0.057   0.082   0.065   0.054   0.048   0.042   0.073   0.283   0.001   0.003
   17 061   130  13.00  10.00  -1.00 -99.000   2.296   0.191   2.104   2.125   0.021   2.104   0.000   0.000   64.02   57.07    0.61   56.46    0.00    0.00 -99.000 -99.000 -99.000   0.427   0.302   0.107   0.160   0.127   0.107   0.094   0.083   0.143   0.556   0.002   0.003
   17 062   131   9.00   9.00  -2.00 -99.000   1.527   0.140   1.386   1.471   0.084   1.386   0.000   0.000   65.55   58.54    0.69   57.85    0.00    0.00 -99.000 -99.000 -99.000   0.261   0.196   0.069   0.107   0.086   0.072   0.064   0.056   0.097   0.379   0.008   0.003
   17 063   132   9.00  16.00   2.00 -99.000   1.780   0.176   1.604   1.668   0.064   1.604   0.000   0.000   67.33   60.21    0.76   59.45    0.00    0.00 -99.000 -99.000 -99.000   0.291   0.226   0.079   0.125   0.100   0.084   0.075   0.066   0.114   0.445   0.006   0.003
   17 064   133   9.00   9.00   2.00 -99.000   1.584   0.173   1.411   1.585   0.174   1.411   0.000   0.000   68.91   61.80    0.93   60.86    0.00    0.00 -99.000 -99.000 -99.000   0.261   0.198   0.069   0.109   0.087   0.074   0.065   0.058   0.100   0.390   0.017   0.003
   17 065   134   7.00   8.00   3.00 -99.000   1.227   0.145   1.082   1.141   0.059   1.082   0.000   0.000   70.14   62.94    0.99   61.95    0.00    0.00 -99.000 -99.000 -99.000   0.205   0.152   0.053   0.084   0.067   0.056   0.050   0.044   0.076   0.297   0.006   0.004
   17 066   135   7.00   6.00   0.00 -99.000   1.141   0.144   0.997   1.035   0.037   0.997   0.000   0.000   71.28   63.97    1.03   62.94    0.00    0.00 -99.000 -99.000 -99.000   0.183   0.140   0.049   0.078   0.062   0.052   0.046   0.041   0.071   0.276   0.004   0.004
   17 067   136   7.00   8.00   0.00 -99.000   1.180   0.154   1.026   1.058   0.033   1.026   0.000   0.000   72.46   65.03    1.06   63.97    0.00    0.00 -99.000 -99.000 -99.000   0.211   0.143   0.050   0.078   0.062   0.052   0.046   0.041   0.070   0.273   0.003   0.004
   17 068   137   3.00   9.00   7.00 -99.000   0.563   0.078   0.485   0.541   0.057   0.485   0.000   0.000   73.02   65.57    1.12   64.45    0.00    0.00 -99.000 -99.000 -99.000   0.108   0.073   0.025   0.036   0.028   0.024   0.020   0.018   0.031   0.121   0.006   0.004
   17 069   138  11.00   8.00  -1.00 -99.000   1.854   0.265   1.588   1.599   0.011   1.588   0.000   0.000   74.88   67.17    1.13   66.04    0.00    0.00 -99.000 -99.000 -99.000   0.318   0.241   0.084   0.121   0.095   0.080   0.070   0.062   0.106   0.412   0.001   0.004
   17 070   139  14.00   9.00  -3.00 -99.000   2.322   0.352   1.969   2.057   0.088   1.969   0.000   0.000   77.20   69.23    1.22   68.01    0.00    0.00 -99.000 -99.000 -99.000   0.370   0.287   0.100   0.152   0.120   0.102   0.090   0.080   0.137   0.532   0.009   0.004
   17 071   140  16.00   9.00   0.00 -99.000   2.733   0.434   2.299   2.444   0.145   2.299   0.000   0.000   79.93   71.67    1.36   70.31    0.00    0.00 -99.000 -99.000 -99.000   0.415   0.328   0.114   0.178   0.143   0.121   0.107   0.095   0.163   0.635   0.015   0.004
   17 072   141  16.00  10.00  -1.00 -99.000   2.737   0.463   2.274   2.418   0.144   2.274   0.000   0.000   82.67   74.09    1.51   72.58    0.00    0.00 -99.000 -99.000 -99.000   0.396   0.324   0.112   0.177   0.142   0.121   0.107   0.095   0.163   0.636   0.014   0.005
   17 073   142  12.00  11.00  -1.00 -99.000   2.080   0.379   1.701   1.897   0.196   1.701   0.000   0.000   84.75   75.99    1.70   74.29    0.00    0.00 -99.000 -99.000 -99.000   0.285   0.242   0.084   0.134   0.107   0.091   0.081   0.072   0.123   0.481   0.020   0.005
   17 074   143   9.00  11.00   1.00 -99.000   1.589   0.314   1.274   1.213   0.210   1.003   0.000   0.000   86.34   77.20    1.91   75.29    0.00    0.00 -99.000 -99.000 -99.000   0.806   0.118   0.020   0.021   0.011   0.007   0.005   0.003   0.004   0.009   0.021   0.005
   17 075   144  16.00  15.00   0.00 -99.000   2.964   0.632   2.332   1.091   0.173   0.918   0.000   0.000   89.30   78.29    2.09   76.21    0.00    0.00 -99.000 -99.000 -99.000   0.722   0.117   0.020   0.020   0.011   0.007   0.005   0.003   0.004   0.009   0.017   0.006
   17 076   145  14.00  19.00   0.00 -99.000   2.738   0.654   2.084   1.401   0.512   0.889   0.000   0.000   92.04   79.69    2.60   77.10    0.00    0.00 -99.000 -99.000 -99.000   0.694   0.116   0.020   0.020   0.011   0.007   0.005   0.003   0.004   0.009   0.051   0.006
   17 077   146   4.00   8.00   6.00 -99.000   0.698   0.187   0.511   1.344   0.833   0.511   0.000   0.000   92.73   81.04    3.43   77.61    0.00    0.00 -99.000 -99.000 -99.000   0.412   0.059   0.010   0.010   0.005   0.003   0.002   0.002   0.002   0.004   0.083   0.006
   17 078   147   6.00  13.00   8.00 -99.000   1.164   0.323   0.841   0.866   0.024   0.841   0.000   0.000   93.90   81.90    3.45   78.45    0.00    0.00 -99.000 -99.000 -99.000   0.692   0.090   0.015   0.016   0.008   0.005   0.004   0.003   0.003   0.007   0.002   0.007
   17 079   148  10.00  13.00   6.00 -99.000   1.891   0.557   1.334   1.172   0.142   1.030   0.000   0.000   95.79   83.07    3.60   79.48    0.00    0.00 -99.000 -99.000 -99.000   0.836   0.116   0.020   0.020   0.011   0.007   0.005   0.003   0.004   0.009   0.014   0.007
   17 080   149   9.00  13.00   6.00 -99.000   1.690   0.539   1.151   1.264   0.272   0.993   0.000   0.000   97.48   84.34    3.87   80.47    0.00    0.00 -99.000 -99.000 -99.000   0.800   0.115   0.020   0.020   0.011   0.007   0.005   0.003   0.004   0.009   0.027   0.007
   17 081   150   4.00   7.00   4.00 -99.000   0.664   0.228   0.436   0.712   0.276   0.436   0.000   0.000   98.14   85.05    4.14   80.91    0.00    0.00 -99.000 -99.000 -99.000   0.352   0.050   0.009   0.009   0.005   0.003   0.002   0.001   0.002   0.004   0.028   0.008
   17 082   151  10.00  12.00   4.00 -99.000   1.803   0.636   1.167   1.038   0.039   0.999   0.000   0.000   99.95   86.09    4.18   81.91    0.00    0.00 -99.000 -99.000 -99.000   0.808   0.113   0.019   0.020   0.011   0.007   0.005   0.003   0.004   0.009   0.004   0.008
   17 083   152   5.00   9.00   3.00 -99.000   0.843   0.319   0.524   0.848   0.324   0.524   0.000   0.000  100.79   86.94    4.51   82.43    0.00    0.00 -99.000 -99.000 -99.000   0.416   0.064   0.011   0.011   0.006   0.004   0.003   0.002   0.002   0.005   0.032   0.008
   17 084   153  17.00  12.00   3.00 -99.000   3.000   1.177   1.823   0.996   0.122   0.873   0.000   0.000  103.79   87.93    4.63   83.30    0.00    0.00 -99.000 -99.000 -99.000   0.684   0.112   0.019   0.020   0.011   0.007   0.005   0.003   0.004   0.009   0.012   0.009
   17 085   154  17.00  11.00   0.00 -99.000   2.839   1.177   1.662   1.352   0.545   0.807   0.000   0.000  106.63   89.28    5.17   84.11    0.00    0.00 -99.000 -99.000 -99.000   0.618   0.111   0.019   0.020   0.011   0.007   0.005   0.003   0.004   0.009   0.054   0.009
   17 086   155  20.00  15.00   0.00 -99.000   3.551   1.517   2.034   1.309   0.577   0.732   0.000   0.000  110.18   90.59    5.75   84.84    0.00    0.00 -99.000 -99.000 -99.000   0.545   0.110   0.019   0.020   0.011   0.007   0.005   0.003   0.004   0.009   0.058   0.008
   17 087   156  19.00  18.00  -1.00 -99.000   3.479   1.561   1.919   1.861   1.194   0.667   0.000   0.000  113.66   92.45    6.94   85.51    0.00    0.00 -99.000 -99.000 -99.000   0.482   0.108   0.019   0.020   0.011   0.007   0.005   0.003   0.004   0.009   0.119   0.007
   17 088   157  17.00  18.00   5.00 -99.000   3.282   1.567   1.715   2.368   1.769   0.600   0.000   0.000  116.94   94.82    8.71   86.11    0.00    0.00 -99.000 -99.000 -99.000   0.418   0.106   0.019   0.020   0.011   0.007   0.005   0.003   0.004   0.009   0.177   0.008
   17 089   158  18.00  18.00   2.00 -99.000   3.352   1.716   1.636   1.984   1.445   0.540   0.000   0.000  120.29   96.81   10.16   86.65    0.00    0.00 -99.000 -99.000 -99.000   0.362   0.102   0.018   0.019   0.010   0.007   0.005   0.003   0.004   0.009   0.144   0.010
   17 090   159  19.00  23.00   4.00 -99.000   3.850   2.071   1.780   2.308   1.809   0.499   0.000   0.000  124.14   99.11   11.97   87.15    0.00    0.00 -99.000 -99.000 -99.000   0.325   0.099   0.018   0.019   0.010   0.006   0.004   0.003   0.004   0.009   0.181   0.011
   17 091   160  15.00  22.00   3.00 -99.000   2.954   1.683   1.271   3.479   3.015   0.465   0.000   0.000  127.09  102.59   14.98   87.61    0.00    0.00 -99.000 -99.000 -99.000   0.296   0.095   0.017   0.019   0.010   0.006   0.004   0.003   0.004   0.009   0.301   0.013
   17 092   161  15.00  19.00   6.00 -99.000   2.900   1.727   1.173   3.033   2.602   0.431   0.000   0.000  130.00  105.63   17.58   88.04    0.00    0.00 -99.000 -99.000 -99.000   0.270   0.090   0.017   0.018   0.010   0.006   0.004   0.003   0.004   0.009   0.260   0.015
   17 093   162  10.00  16.00   6.00 -99.000   1.845   1.142   0.703   2.339   1.803   0.535   0.000   0.000  131.84  107.97   19.39   88.58    0.00    0.00 -99.000 -99.000 -99.000   0.380   0.085   0.016   0.018   0.010   0.006   0.004   0.003   0.004   0.009   0.180   0.017
   17 094   163  11.00  13.00   2.00 -99.000   1.863   1.188   0.675   1.610   0.978   0.632   0.000   0.000  133.70  109.58   20.36   89.21    0.00    0.00 -99.000 -99.000 -99.000   0.480   0.082   0.016   0.018   0.010   0.006   0.004   0.003   0.004   0.009   0.098   0.019
   17 095   164  13.00  13.00   3.00 -99.000   2.215   1.462   0.753   1.330   0.753   0.577   0.000   0.000  135.92  110.91   21.12   89.79    0.00    0.00 -99.000 -99.000 -99.000   0.428   0.081   0.015   0.017   0.010   0.006   0.004   0.003   0.004   0.009   0.075   0.019
   17 096   165  10.00   8.00   1.00 -99.000   1.527   1.042   0.486   1.318   0.832   0.486   0.000   0.000  137.45  112.22   21.95   90.27    0.00    0.00 -99.000 -99.000 -99.000   0.351   0.073   0.014   0.016   0.009   0.006   0.004   0.003   0.004   0.008   0.083   0.018
   17 097   166  17.00  14.00   4.00 -99.000   2.954   2.052   0.902   0.776   0.280   0.496   0.000   0.000  140.40  113.00   22.23   90.77    0.00    0.00 -99.000 -99.000 -99.000   0.350   0.078   0.015   0.017   0.010   0.006   0.004   0.003   0.004   0.009   0.028   0.018
   17 098   167  19.00  17.00   4.00 -99.000   3.440   2.466   0.975   1.463   1.000   0.464   0.000   0.000  143.84  114.46   23.23   91.23    0.00    0.00 -99.000 -99.000 -99.000   0.319   0.077   0.015   0.017   0.010   0.006   0.004   0.003   0.004   0.009   0.100   0.018
   17 099   168  22.00  21.00   3.00 -99.000   4.164   3.072   1.092   1.938   1.505   0.433   0.000   0.000  148.00  116.40   24.73   91.67    0.00    0.00 -99.000 -99.000 -99.000   0.290   0.076   0.015   0.017   0.009   0.006   0.004   0.003   0.004   0.009   0.150   0.019
   17 100   169  20.00  23.00   5.00 -99.000   3.949   2.991   0.958   2.793   2.388   0.404   0.000   0.000  151.95  119.19   27.12   92.07    0.00    0.00 -99.000 -99.000 -99.000   0.264   0.074   0.014   0.017   0.009   0.006   0.004   0.003   0.004   0.009   0.239   0.019
   17 101   170  17.00  13.00   0.00 -99.000   2.750   2.125   0.625   2.651   2.275   0.376   0.000   0.000  154.70  121.84   29.40   92.45    0.00    0.00 -99.000 -99.000 -99.000   0.240   0.071   0.014   0.016   0.009   0.006   0.004   0.003   0.004   0.009   0.227   0.019
   17 102   171  18.00  18.00   0.00 -99.000   3.144   2.460   0.685   1.050   0.699   0.351   0.000   0.000  157.85  122.89   30.10   92.80    0.00    0.00 -99.000 -99.000 -99.000   0.219   0.069   0.013   0.016   0.009   0.006   0.004   0.003   0.004   0.009   0.070   0.018
   17 103   172  11.00  15.00   5.00 -99.000   1.928   1.528   0.400   1.637   1.307   0.330   0.000   0.000  159.77  124.53   31.40   93.13    0.00    0.00 -99.000 -99.000 -99.000   0.199   0.068   0.013   0.016   0.009   0.006   0.004   0.003   0.004   0.009   0.131   0.018
   17 104   173  11.00  13.00   4.00 -99.000   1.849   1.478   0.371   0.817   0.507   0.310   0.000   0.000  161.62  125.35   31.91   93.44    0.00    0.00 -99.000 -99.000 -99.000   0.181   0.067   0.013   0.015   0.009   0.006   0.004   0.003   0.004   0.009   0.051   0.018
   17 105   174  12.00  15.00   6.00 -99.000   2.120   1.707   0.413   0.680   0.387   0.293   0.000   0.000  163.74  126.03   32.30   93.73    0.00    0.00 -99.000 -99.000 -99.000   0.165   0.066   0.013   0.015   0.009   0.006   0.004   0.003   0.004   0.009   0.039   0.019
   17 106   175   9.00   9.00   4.00 -99.000   1.415   1.148   0.267   0.764   0.496   0.267   0.000   0.000  165.16  126.79   32.79   94.00    0.00    0.00 -99.000 -99.000 -99.000   0.162   0.054   0.010   0.013   0.007   0.005   0.003   0.002   0.004   0.007   0.050   0.019
   17 107   176   6.00   8.00   2.00 -99.000   0.907   0.739   0.168   0.306   0.139   0.168   0.000   0.000  166.07  127.10   32.93   94.17    0.00    0.00 -99.000 -99.000 -99.000   0.138   0.016   0.003   0.004   0.002   0.001   0.001   0.001   0.001   0.002   0.014   0.019
   17 108   177  10.00   6.00   0.00 -99.000   1.432   1.171   0.261   0.369   0.107   0.261   0.000   0.000  167.50  127.47   33.04   94.43    0.00    0.00 -99.000 -99.000 -99.000   0.060   0.025   0.009   0.017   0.015   0.013   0.012   0.011   0.021   0.081   0.011   0.023
   17 109   178  12.00   4.00   0.00 -99.000   1.133   0.930   0.203   0.323   0.120   0.203   0.000   0.000  168.63  127.79   33.16   94.63    0.00    0.00 -99.000 -99.000 -99.000   0.046   0.021   0.007   0.013   0.011   0.010   0.009   0.008   0.016   0.062   0.012   0.026
   17 110   179  16.00   6.00  -2.00 -99.000   2.234   1.841   0.394   0.463   0.069   0.394   0.000   0.000  170.86  128.25   33.23   95.03    0.00    0.00 -99.000 -99.000 -99.000   0.084   0.045   0.013   0.025   0.022   0.019   0.017   0.016   0.031   0.122   0.007   0.028
   17 111   180  20.00  11.00  -3.00 -99.000   3.017   2.498   0.519   0.718   0.199   0.519   0.000   0.000  173.88  128.97   33.43   95.54    0.00    0.00 -99.000 -99.000 -99.000   0.107   0.061   0.017   0.033   0.029   0.026   0.023   0.022   0.041   0.162   0.020   0.028
   17 112   181   8.00  11.00   2.00 -99.000   1.275   1.064   0.211   0.871   0.660   0.211   0.000   0.000  175.16  129.84   34.09   95.76    0.00    0.00 -99.000 -99.000 -99.000   0.045   0.025   0.007   0.013   0.012   0.010   0.009   0.009   0.016   0.064   0.066   0.028
   17 113   182  14.00   8.00  -2.00 -99.000   2.024   1.696   0.328   0.610   0.283   0.328   0.000   0.000  177.18  130.45   34.37   96.08    0.00    0.00 -99.000 -99.000 -99.000   0.069   0.042   0.010   0.020   0.018   0.016   0.014   0.013   0.025   0.100   0.028   0.029
   17 114   183  25.00  15.00  -3.00 -99.000   4.025   3.389   0.636   0.913   0.277   0.636   0.000   0.000  181.20  131.37   34.65   96.72    0.00    0.00 -99.000 -99.000 -99.000   0.130   0.084   0.020   0.039   0.035   0.031   0.028   0.026   0.050   0.195   0.028   0.029
   17 115   184   9.00  11.00   3.00 -99.000   1.446   1.229   0.218   1.468   1.250   0.218   0.000   0.000  182.65  132.83   35.90   96.94    0.00    0.00 -99.000 -99.000 -99.000   0.049   0.033   0.009   0.012   0.011   0.010   0.009   0.008   0.016   0.062   0.125   0.029
   17 116   185   6.00   4.00   1.00 -99.000   0.571   0.487   0.084   0.337   0.253   0.084   0.000   0.000  183.22  133.17   36.15   97.02    0.00    0.00 -99.000 -99.000 -99.000   0.020   0.014   0.005   0.005   0.004   0.003   0.003   0.003   0.006   0.022   0.025   0.032
   17 117   186   6.00   4.00   0.00 -99.000   0.563   0.481   0.082   0.113   0.031   0.082   0.000   0.000  183.78  133.28   36.18   97.10    0.00    0.00 -99.000 -99.000 -99.000   0.019   0.014   0.005   0.006   0.004   0.003   0.003   0.003   0.005   0.020   0.003   0.032
   17 118   187   7.00   5.00   0.00 -99.000   0.980   0.838   0.142   0.181   0.039   0.142   0.000   0.000  184.76  133.46   36.22   97.25    0.00    0.00 -99.000 -99.000 -99.000   0.031   0.023   0.008   0.013   0.009   0.006   0.005   0.004   0.009   0.034   0.004   0.032
   17 119   188  17.00  12.00   1.00 -99.000   2.720   2.331   0.390   0.453   0.063   0.390   0.000   0.000  187.48  133.92   36.28   97.64    0.00    0.00 -99.000 -99.000 -99.000   0.078   0.059   0.020   0.032   0.025   0.020   0.016   0.014   0.026   0.100   0.006   0.032
   17 120   189  26.00  14.00   1.00 -99.000   4.288   3.693   0.595   1.121   0.526   0.595   0.000   0.000  191.77  135.04   36.81   98.23    0.00    0.00 -99.000 -99.000 -99.000   0.112   0.087   0.030   0.048   0.037   0.031   0.027   0.024   0.041   0.159   0.053   0.031
   17 121   190  11.00  14.00   2.00 -99.000   1.830   1.587   0.243   1.132   0.889   0.243   0.000   0.000  193.60  136.17   37.70   98.47    0.00    0.00 -99.000 -99.000 -99.000   0.049   0.038   0.013   0.019   0.015   0.012   0.010   0.009   0.016   0.062   0.089   0.032
   17 122   191  15.00  14.00   4.00 -99.000   2.551   2.219   0.332   0.782   0.450   0.332   0.000   0.000  196.15  136.95   38.15   98.81    0.00    0.00 -99.000 -99.000 -99.000   0.066   0.050   0.017   0.026   0.020   0.017   0.015   0.013   0.022   0.086   0.045   0.032
   17 123   192  13.00  15.00   5.00 -99.000   2.263   1.977   0.287   0.768   0.481   0.287   0.000   0.000  198.42  137.72   38.63   99.09    0.00    0.00 -99.000 -99.000 -99.000   0.054   0.042   0.014   0.022   0.018   0.015   0.013   0.012   0.020   0.077   0.048   0.032
   17 124   193  14.00  14.00   4.00 -99.000   2.374   2.081   0.294   0.760   0.466   0.294   0.000   0.000  200.79  138.48   39.09   99.39    0.00    0.00 -99.000 -99.000 -99.000   0.054   0.042   0.014   0.023   0.018   0.015   0.014   0.012   0.021   0.081   0.047   0.033
   17 125   194  14.00  16.00   6.00 -99.000   2.494   2.192   0.302   0.733   0.431   0.302   0.000   0.000  203.28  139.21   39.53   99.69    0.00    0.00 -99.000 -99.000 -99.000   0.054   0.043   0.015   0.023   0.019   0.016   0.014   0.012   0.022   0.084   0.043   0.033
   17 126   195  23.00  20.00   5.00 -99.000   4.295   3.785   0.511   1.016   0.505   0.511   0.000   0.000  207.58  140.23   40.03  100.20    0.00    0.00 -99.000 -99.000 -99.000   0.091   0.072   0.025   0.040   0.032   0.027   0.024   0.021   0.036   0.142   0.051   0.033
   17 127   196   8.00  13.00   9.00 -99.000   1.403   1.240   0.163   1.347   1.185   0.163   0.000   0.000  208.98  141.58   41.22  100.36    0.00    0.00 -99.000 -99.000 -99.000   0.033   0.023   0.008   0.012   0.010   0.008   0.007   0.006   0.011   0.043   0.118   0.033
   17 128   197   6.00  11.00   6.00 -99.000   0.991   0.877   0.114   0.238   0.124   0.114   0.000   0.000  209.97  141.82   41.34  100.48    0.00    0.00 -99.000 -99.000 -99.000   0.026   0.017   0.006   0.008   0.007   0.005   0.005   0.004   0.007   0.029   0.012   0.034
   17 129   198  15.00  11.00   3.00 -99.000   2.400   2.126   0.275   0.377   0.102   0.275   0.000   0.000  212.37  142.19   41.44  100.75    0.00    0.00 -99.000 -99.000 -99.000   0.055   0.041   0.014   0.021   0.016   0.014   0.012   0.011   0.018   0.072   0.010   0.034
   17 130   199  28.00  16.00   0.00 -99.000   4.693   4.164   0.529   0.791   0.262   0.529   0.000   0.000  217.07  142.98   41.70  101.28    0.00    0.00 -99.000 -99.000 -99.000   0.101   0.077   0.027   0.041   0.032   0.027   0.024   0.021   0.037   0.143   0.026   0.034
   17 131   200  21.00  21.00   3.00 -99.000   3.899   3.471   0.428   1.372   0.944   0.428   0.000   0.000  220.97  144.35   42.65  101.71    0.00    0.00 -99.000 -99.000 -99.000   0.079   0.061   0.021   0.033   0.027   0.023   0.020   0.018   0.030   0.118   0.094   0.034
   17 132   201  20.00  21.00  11.00 -99.000   3.988   3.560   0.429   1.593   1.164   0.429   0.000   0.000  224.95  145.95   43.81  102.14    0.00    0.00 -99.000 -99.000 -99.000   0.077   0.060   0.021   0.033   0.027   0.023   0.020   0.018   0.031   0.119   0.116   0.034
   17 133   202  19.00  21.00   9.00 -99.000   3.721   3.329   0.392   1.165   0.773   0.392   0.000   0.000  228.67  147.11   44.58  102.53    0.00    0.00 -99.000 -99.000 -99.000   0.070   0.055   0.019   0.030   0.024   0.021   0.018   0.016   0.028   0.110   0.077   0.034
   17 134   203  17.00  20.00   9.00 -99.000   3.284   2.944   0.340   1.195   0.855   0.340   0.000   0.000  231.96  148.31   45.44  102.87    0.00    0.00 -99.000 -99.000 -99.000   0.068   0.052   0.018   0.026   0.020   0.017   0.015   0.013   0.023   0.089   0.086   0.035
   17 135   204  18.00  18.00   8.00 -99.000   3.357   3.015   0.342   1.054   0.712   0.342   0.000   0.000  235.31  149.36   46.15  103.21    0.00    0.00 -99.000 -99.000 -99.000   0.074   0.053   0.019   0.027   0.020   0.017   0.014   0.013   0.022   0.084   0.071   0.035
   17 136   205  24.00  21.00   6.00 -99.000   4.583   4.097   0.486   1.089   0.603   0.486   0.000   0.000  239.90  150.45   46.75  103.70    0.00    0.00 -99.000 -99.000 -99.000   0.096   0.071   0.026   0.038   0.030   0.025   0.022   0.019   0.033   0.127   0.060   0.035
   17 137   206  27.00  23.00   7.00 -99.000   5.341   4.763   0.579   1.733   1.154   0.579   0.000   0.000  245.24  152.18   47.91  104.28    0.00    0.00 -99.000 -99.000 -99.000   0.108   0.083   0.029   0.045   0.036   0.030   0.027   0.024   0.040   0.157   0.115   0.035
   17 138   207  23.00  27.00   8.00 -99.000   4.832   4.277   0.556   1.999   1.442   0.556   0.000   0.000  250.07  154.18   49.35  104.83    0.00    0.00 -99.000 -99.000 -99.000   0.101   0.079   0.027   0.043   0.035   0.029   0.026   0.023   0.039   0.154   0.144   0.036
   17 139   208  15.00  24.00   7.00 -99.000   3.009   2.654   0.356   2.375   2.019   0.356   0.000   0.000  253.08  156.56   51.37  105.19    0.00    0.00 -99.000 -99.000 -99.000   0.064   0.050   0.017   0.028   0.022   0.019   0.017   0.015   0.025   0.099   0.202   0.036
   17 140   209  23.00  17.00   4.00 -99.000   4.076   3.583   0.494   1.877   1.383   0.494   0.000   0.000  257.16  158.44   52.75  105.68    0.00    0.00 -99.000 -99.000 -99.000   0.404   0.054   0.009   0.009   0.005   0.003   0.002   0.001   0.002   0.004   0.138   0.036
   17 141   210  21.00  18.00   5.00 -99.000   3.813   3.344   0.470   1.497   1.027   0.470   0.000   0.000  260.97  159.93   53.78  106.15    0.00    0.00 -99.000 -99.000 -99.000   0.380   0.053   0.009   0.009   0.005   0.003   0.002   0.001   0.002   0.004   0.103   0.036
   17 142   211  23.00  22.00   7.00 -99.000   4.497   3.933   0.564   1.627   1.063   0.564   0.000   0.000  265.47  161.56   54.84  106.72    0.00    0.00 -99.000 -99.000 -99.000   0.452   0.067   0.011   0.012   0.006   0.004   0.003   0.002   0.002   0.005   0.106   0.037
   17 143   212  23.00  24.00   8.00 -99.000   4.657   4.061   0.597   2.276   1.679   0.597   0.000   0.000  270.12  163.84   56.52  107.31    0.00    0.00 -99.000 -99.000 -99.000   0.473   0.074   0.013   0.013   0.007   0.004   0.003   0.002   0.003   0.006   0.168   0.037
   17 144   213  18.00  17.00  10.00 -99.000   3.380   2.936   0.444   2.468   2.024   0.444   0.000   0.000  273.50  166.30   58.55  107.76    0.00    0.00 -99.000 -99.000 -99.000   0.347   0.058   0.010   0.010   0.005   0.003   0.002   0.002   0.002   0.004   0.202   0.037
   17 145   214  20.00  19.00   7.00 -99.000   3.756   3.252   0.504   1.150   0.647   0.504   0.000   0.000  277.26  167.45   59.19  108.26    0.00    0.00 -99.000 -99.000 -99.000   0.388   0.069   0.012   0.012   0.006   0.004   0.003   0.002   0.003   0.005   0.065   0.038
   17 146   215  29.00  22.00   5.00 -99.000   5.573   4.811   0.762   2.176   1.414   0.762   0.000   0.000  282.83  169.63   60.61  109.02    0.00    0.00 -99.000 -99.000 -99.000   0.578   0.109   0.019   0.020   0.010   0.006   0.004   0.003   0.004   0.009   0.141   0.036
   17 147   216  29.00  24.00   8.00 -99.000   5.875   5.057   0.819   3.801   3.104   0.697   0.000   0.000  288.71  173.43   63.71  109.72    0.00    0.00 -99.000 -99.000 -99.000   0.515   0.107   0.018   0.019   0.010   0.006   0.004   0.003   0.004   0.009   0.310   0.034
   17 148   217  29.00  27.00   9.00 -99.000   6.153   5.276   0.878   4.118   3.494   0.624   0.000   0.000  294.86  177.55   67.20  110.34    0.00    0.00 -99.000 -99.000 -99.000   0.447   0.103   0.018   0.019   0.010   0.006   0.004   0.003   0.004   0.009   0.349   0.034
   17 149   218  27.00  29.00  10.00 -99.000   5.918   5.052   0.867   4.902   4.340   0.563   0.000   0.000  300.78  182.45   71.54  110.91    0.00    0.00 -99.000 -99.000 -99.000   0.392   0.099   0.017   0.019   0.010   0.006   0.004   0.003   0.004   0.009   0.434   0.034
   17 150   219  25.00  28.00  16.00 -99.000   5.677   4.823   0.854   5.433   4.652   0.780   0.000   0.000  306.45  187.88   76.20  111.69    0.00    0.00 -99.000 -99.000 -99.000   0.616   0.094   0.017   0.018   0.010   0.006   0.004   0.003   0.004   0.009   0.465   0.035
   17 151   220  23.00  25.00  15.00 -99.000   5.023   4.244   0.779   4.045   3.266   0.779   0.000   0.000  311.48  191.93   79.46  112.47    0.00    0.00 -99.000 -99.000 -99.000   0.655   0.070   0.012   0.014   0.007   0.005   0.003   0.002   0.003   0.007   0.327   0.041
   17 152   221  23.00  25.00  13.00 -99.000   4.942   4.158   0.785   4.355   3.570   0.785   0.000   0.000  316.42  196.28   83.03  113.25    0.00    0.00 -99.000 -99.000 -99.000   0.648   0.077   0.014   0.015   0.008   0.005   0.004   0.003   0.004   0.008   0.357   0.042
   17 153   222  23.00  26.00  11.00 -99.000   4.918   4.138   0.781   4.736   3.972   0.765   0.000   0.000  321.34  201.02   87.00  114.02    0.00    0.00 -99.000 -99.000 -99.000   0.616   0.083   0.015   0.016   0.009   0.006   0.004   0.003   0.004   0.009   0.397   0.043
   17 154   223  25.00  27.00  12.00 -99.000   5.455   4.563   0.893   6.055   5.213   0.842   0.000   0.000  326.79  207.07   92.22  114.86    0.00    0.00 -99.000 -99.000 -99.000   0.698   0.080   0.014   0.016   0.009   0.006   0.004   0.003   0.004   0.009   0.521   0.035
   17 155   224  12.00  19.00  10.00 -99.000   2.331   1.940   0.391   6.113   5.722   0.391   0.000   0.000  329.12  213.19   97.94  115.25    0.00    0.00 -99.000 -99.000 -99.000   0.333   0.033   0.006   0.007   0.004   0.002   0.002   0.001   0.002   0.004   0.572   0.038
   17 156   225  14.00  21.00   9.00 -99.000   2.769   2.292   0.477   2.200   1.722   0.477   0.000   0.000  331.89  215.39   99.66  115.73    0.00    0.00 -99.000 -99.000 -99.000   0.406   0.040   0.007   0.008   0.004   0.003   0.002   0.001   0.002   0.005   0.172   0.036
   17 157   226   7.00  16.00   8.00 -99.000   1.282   1.057   0.225   2.845   2.620   0.225   0.000   0.000  333.17  218.23  102.28  115.95    0.00    0.00 -99.000 -99.000 -99.000   0.049   0.024   0.008   0.014   0.012   0.011   0.010   0.009   0.017   0.073   0.262   0.035
   17 158   227  21.00  15.00   5.00 -99.000   3.692   3.030   0.662   1.563   0.901   0.662   0.000   0.000  336.87  219.80  103.18  116.61    0.00    0.00 -99.000 -99.000 -99.000   0.149   0.075   0.021   0.040   0.034   0.031   0.028   0.025   0.049   0.210   0.090   0.039
   17 159   228  26.00  22.00   3.00 -99.000   4.958   4.054   0.904   2.832   1.928   0.904   0.000   0.000  341.82  222.63  105.11  117.52    0.00    0.00 -99.000 -99.000 -99.000   0.194   0.107   0.029   0.055   0.047   0.042   0.038   0.034   0.067   0.290   0.193   0.039
   17 160   229  21.00  24.00   7.00 -99.000   4.262   3.475   0.788   6.166   5.378   0.788   0.000   0.000  346.09  228.79  110.49  118.31    0.00    0.00 -99.000 -99.000 -99.000   0.183   0.098   0.024   0.046   0.039   0.035   0.032   0.029   0.056   0.246   0.538   0.037
   17 161   230  27.00  22.00  10.00 -99.000   5.492   4.460   1.033   5.921   4.888   1.033   0.000   0.000  351.58  234.71  115.38  119.34    0.00    0.00 -99.000 -99.000 -99.000   0.233   0.138   0.030   0.059   0.050   0.045   0.041   0.037   0.074   0.326   0.489   0.035
   17 162   231  29.00  26.00   8.00 -99.000   6.097   4.927   1.171   5.138   4.090   1.047   0.000   0.000  357.68  239.85  119.47  120.39    0.00    0.00 -99.000 -99.000 -99.000   0.897   0.097   0.010   0.013   0.007   0.005   0.003   0.002   0.004   0.008   0.409   0.032
   17 163   232  20.00  26.00  11.00 -99.000   4.308   3.463   0.845   7.528   6.683   0.845   0.000   0.000  361.98  247.38  126.15  121.23    0.00    0.00 -99.000 -99.000 -99.000   0.709   0.088   0.009   0.012   0.007   0.004   0.003   0.002   0.004   0.008   0.668   0.030
   17 164   233  29.00  24.00  11.00 -99.000   6.089   4.867   1.223   5.348   4.634   0.715   0.000   0.000  368.07  252.73  130.78  121.95    0.00    0.00 -99.000 -99.000 -99.000   0.578   0.087   0.009   0.012   0.007   0.004   0.003   0.002   0.004   0.008   0.463   0.024
   17 165   234  27.00  24.00  11.00 -99.000   5.668   4.502   1.167   5.482   4.874   0.607   0.000   0.000  373.74  258.21  135.66  122.55    0.00    0.00 -99.000 -99.000 -99.000   0.477   0.082   0.009   0.012   0.006   0.004   0.003   0.002   0.004   0.008   0.487   0.018
   17 166   235  27.00  28.00   9.00 -99.000   5.858   4.624   1.235   4.738   4.078   0.659   0.000   0.000  379.60  262.95  139.74  123.21    0.00    0.00 -99.000 -99.000 -99.000   0.535   0.077   0.009   0.011   0.006   0.004   0.003   0.002   0.004   0.008   0.408   0.013
   17 167   236  25.00  23.00  11.00 -99.000   5.194   4.097   1.097   6.554   5.827   0.727   0.000   0.000  384.79  269.50  145.56  123.94    0.00    0.00 -99.000 -99.000 -99.000   0.607   0.073   0.009   0.011   0.006   0.004   0.003   0.002   0.003   0.008   0.583   0.019
   17 168   237  23.00  20.00  10.00 -99.000   4.550   3.586   0.965   3.896   3.313   0.583   0.000   0.000  389.34  273.40  148.87  124.52    0.00    0.00 -99.000 -99.000 -99.000   0.469   0.069   0.008   0.011   0.006   0.004   0.003   0.002   0.003   0.008   0.331   0.010
   17 169   238  28.00  22.00   7.00 -99.000   5.536   4.356   1.181   2.836   2.327   0.510   0.000   0.000  394.88  276.23  151.20  125.03    0.00    0.00 -99.000 -99.000 -99.000   0.399   0.066   0.008   0.010   0.006   0.004   0.003   0.002   0.003   0.008   0.233   0.009
   17 170   239  30.00  28.00  10.00 -99.000   6.563   5.155   1.408   4.321   3.860   0.461   0.000   0.000  401.44  280.56  155.06  125.49    0.00    0.00 -99.000 -99.000 -99.000   0.353   0.064   0.008   0.010   0.006   0.004   0.003   0.002   0.003   0.008   0.386   0.009
   17 171   240  25.00  30.00  12.00 -99.000   5.688   4.459   1.230   6.126   5.705   0.421   0.000   0.000  407.13  286.68  160.77  125.92    0.00    0.00 -99.000 -99.000 -99.000   0.317   0.061   0.008   0.010   0.005   0.004   0.002   0.002   0.003   0.008   0.571   0.009
   17 172   241  22.00  30.00  14.00 -99.000   5.083   3.971   1.112   5.548   5.161   0.388   0.000   0.000  412.21  292.23  165.93  126.30    0.00    0.00 -99.000 -99.000 -99.000   0.289   0.057   0.008   0.010   0.005   0.003   0.002   0.002   0.003   0.008   0.516   0.007
   17 173   242  25.00  31.00  14.00 -99.000   5.844   4.545   1.299   4.790   4.253   0.537   0.000   0.000  418.06  297.02  170.18  126.84    0.00    0.00 -99.000 -99.000 -99.000   0.442   0.054   0.008   0.009   0.005   0.003   0.002   0.002   0.003   0.008   0.425   0.006
   17 174   243  23.00  29.00  15.00 -99.000   5.317   4.112   1.205   5.460   4.786   0.674   0.000   0.000  423.37  302.48  174.97  127.51    0.00    0.00 -99.000 -99.000 -99.000   0.582   0.052   0.008   0.009   0.005   0.003   0.002   0.002   0.003   0.008   0.479   0.011
   17 175   244  24.00  26.00  14.00 -99.000   5.310   4.080   1.231   4.292   3.790   0.503   0.000   0.000  428.68  306.77  178.76  128.02    0.00    0.00 -99.000 -99.000 -99.000   0.413   0.050   0.008   0.009   0.005   0.003   0.002   0.002   0.003   0.008   0.379   0.005
   17 176   245  15.00  22.00  12.00 -99.000   3.107   2.369   0.739   3.705   3.235   0.470   0.000   0.000  431.79  310.48  181.99  128.49    0.00    0.00 -99.000 -99.000 -99.000   0.382   0.049   0.008   0.009   0.005   0.003   0.002   0.002   0.003   0.008   0.324   0.005
   17 177   246  28.00  29.00  13.00 -99.000   6.378   4.822   1.557   2.469   1.810   0.658   0.000   0.000  438.17  312.95  183.80  129.14    0.00    0.00 -99.000 -99.000 -99.000   0.572   0.048   0.008   0.009   0.005   0.003   0.002   0.002   0.002   0.008   0.181   0.005
   17 178   247  20.00  26.00  16.00 -99.000   4.522   3.392   1.130   5.831   4.701   1.130   0.000   0.000  442.69  318.78  188.50  130.27    0.00    0.00 -99.000 -99.000 -99.000   0.300   0.105   0.032   0.054   0.045   0.039   0.035   0.031   0.066   0.424   0.470   0.013
   17 179   248  20.00  25.00  15.00 -99.000   4.455   3.306   1.150   3.599   2.449   1.150   0.000   0.000  447.15  322.38  190.95  131.42    0.00    0.00 -99.000 -99.000 -99.000   0.336   0.150   0.029   0.050   0.041   0.036   0.032   0.029   0.059   0.388   0.245   0.013
   17 180   249  17.00  22.00  13.00 -99.000   3.604   2.641   0.963   3.347   2.384   0.963   0.000   0.000  450.75  325.72  193.34  132.39    0.00    0.00 -99.000 -99.000 -99.000   0.274   0.159   0.023   0.040   0.033   0.028   0.026   0.023   0.047   0.311   0.238   0.019
   17 181   250  25.00  22.00  13.00 -99.000   5.302   3.833   1.469   3.251   1.781   1.469   0.000   0.000  456.05  328.97  195.12  133.86    0.00    0.00 -99.000 -99.000 -99.000   0.370   0.259   0.037   0.063   0.052   0.045   0.041   0.036   0.074   0.493   0.178   0.019
   17 182   251  19.00  21.00  12.00 -99.000   3.943   2.814   1.130   3.321   2.300   1.021   0.000   0.000  460.00  332.29  197.42  134.88    0.00    0.00 -99.000 -99.000 -99.000   0.872   0.111   0.008   0.009   0.005   0.003   0.002   0.001   0.002   0.008   0.230   0.018
   17 183   252  12.00  19.00  13.00 -99.000   2.446   1.720   0.726   2.560   1.834   0.726   0.000   0.000  462.44  334.85  199.25  135.60    0.00    0.00 -99.000 -99.000 -99.000   0.602   0.091   0.007   0.007   0.004   0.003   0.002   0.001   0.002   0.007   0.183   0.018
   17 184   253  20.00  22.00  12.00 -99.000   4.202   2.911   1.292   1.573   0.867   0.706   0.000   0.000  466.65  336.43  200.12  136.31    0.00    0.00 -99.000 -99.000 -99.000   0.569   0.100   0.008   0.009   0.005   0.003   0.002   0.001   0.002   0.008   0.087   0.014
   17 185   254  23.00  25.00  11.00 -99.000   4.980   3.394   1.587   2.679   2.053   0.626   0.000   0.000  471.63  339.11  202.17  136.94    0.00    0.00 -99.000 -99.000 -99.000   0.492   0.097   0.008   0.009   0.005   0.003   0.002   0.001   0.002   0.008   0.205   0.011
   17 186   255  28.00  29.00  10.00 -99.000   6.318   4.223   2.095   3.690   3.162   0.528   0.000   0.000  477.94  342.80  205.33  137.46    0.00    0.00 -99.000 -99.000 -99.000   0.402   0.089   0.008   0.009   0.005   0.003   0.002   0.001   0.002   0.008   0.316   0.010
   17 187   256  27.00  31.00  12.00 -99.000   6.341   4.144   2.197   5.250   4.810   0.440   0.000   0.000  484.28  348.05  210.14  137.90    0.00    0.00 -99.000 -99.000 -99.000   0.327   0.076   0.008   0.009   0.005   0.003   0.002   0.001   0.002   0.008   0.481   0.006
   17 188   257  19.00  29.00  15.00 -99.000   4.472   2.844   1.629   0.490   0.107   0.383   0.000   0.000  488.76  348.54  210.25  138.29    0.00    0.00 -99.000 -99.000 -99.000   0.298   0.048   0.008   0.009   0.005   0.003   0.002   0.001   0.002   0.008   0.011   0.004
   17 189   258  21.00  30.00  16.00 -99.000   5.057   3.074   1.983   0.393   0.038   0.355   0.000   0.000  493.81  348.93  210.29  138.64    0.00    0.00 -99.000 -99.000 -99.000   0.271   0.047   0.008   0.009   0.005   0.003   0.002   0.001   0.002   0.008   0.004   0.004
   17 190   259  17.00  27.00  16.00 -99.000   3.969   2.314   1.655   0.927   0.037   0.889   0.000   0.000  497.78  349.86  210.32  139.53    0.00    0.00 -99.000 -99.000 -99.000   0.771   0.082   0.008   0.009   0.005   0.003   0.002   0.001   0.002   0.008   0.004   0.004
   17 191   260  17.00  26.00  15.00 -99.000   3.991   2.210   1.781   3.532   1.751   1.781   0.000   0.000  501.77  353.39  212.07  141.31    0.00    0.00 -99.000 -99.000 -99.000   0.533   0.314   0.051   0.069   0.057   0.050   0.045   0.040   0.077   0.546   0.175   0.017
   17 192   261  19.00  23.00  14.00 -99.000   4.287   2.241   2.046   3.636   1.590   2.046   0.000   0.000  506.06  357.02  213.67  143.36    0.00    0.00 -99.000 -99.000 -99.000   0.574   0.375   0.081   0.079   0.066   0.057   0.051   0.046   0.089   0.628   0.159   0.017
   17 193   262  16.00  25.00  13.00 -99.000   3.686   1.806   1.880   3.093   1.212   1.880   0.000   0.000  509.75  360.12  214.88  145.24    0.00    0.00 -99.000 -99.000 -99.000   0.505   0.344   0.090   0.073   0.061   0.053   0.048   0.042   0.082   0.583   0.121   0.019
   17 194   263  28.00  21.00   9.00 -99.000   5.961   2.725   3.236   4.584   1.348   3.236   0.000   0.000  515.71  364.70  216.23  148.47    0.00    0.00 -99.000 -99.000 -99.000   0.795   0.589   0.180   0.129   0.107   0.094   0.084   0.075   0.146   1.036   0.135   0.018
   17 195   264  17.00  20.00   9.00 -99.000   3.577   1.502   2.075   3.527   1.452   2.075   0.000   0.000  519.28  368.23  217.68  150.55    0.00    0.00 -99.000 -99.000 -99.000   0.543   0.370   0.122   0.081   0.066   0.058   0.052   0.047   0.091   0.644   0.145   0.018
   17 196   265  18.00  19.00  11.00 -99.000   3.863   1.499   2.365   3.223   0.858   2.365   0.000   0.000  523.15  371.45  218.54  152.91    0.00    0.00 -99.000 -99.000 -99.000   0.606   0.421   0.143   0.104   0.075   0.066   0.059   0.053   0.103   0.734   0.086   0.018
   17 197   266  25.00  23.00   8.00 -99.000   5.508   1.952   3.557   4.152   0.596   3.557   0.000   0.000  528.66  375.60  219.13  156.47    0.00    0.00 -99.000 -99.000 -99.000   0.840   0.636   0.217   0.175   0.116   0.101   0.092   0.082   0.160   1.138   0.060   0.018
   17 198   267  22.00  26.00  10.00 -99.000   5.137   1.627   3.510   2.268   1.266   1.003   0.000   0.000  533.79  377.87  220.40  157.47    0.00    0.00 -99.000 -99.000 -99.000   0.838   0.115   0.019   0.010   0.004   0.003   0.002   0.001   0.002   0.007   0.127   0.017
   17 199   268  26.00  29.00  11.00 -99.000   6.368   1.748   4.621   2.056   1.179   0.877   0.000   0.000  540.16  379.93  221.58  158.35    0.00    0.00 -99.000 -99.000 -99.000   0.717   0.112   0.019   0.010   0.004   0.003   0.002   0.001   0.002   0.007   0.118   0.017
   17 200   269  26.00  32.00  15.00 -99.000   6.833   1.506   5.326   1.983   1.215   0.768   0.000   0.000  546.99  381.91  222.79  159.12    0.00    0.00 -99.000 -99.000 -99.000   0.611   0.109   0.018   0.010   0.004   0.003   0.002   0.001   0.002   0.007   0.121   0.017
   17 201   270  14.00  27.00  14.00 -99.000   3.475   0.537   2.938   1.479   0.805   0.674   0.000   0.000  550.47  383.39  223.60  159.79    0.00    0.00 -99.000 -99.000 -99.000   0.521   0.106   0.018   0.010   0.004   0.003   0.002   0.001   0.002   0.007   0.080   0.011
   17 202   271  25.00  28.00  13.00 -99.000   6.333   0.234   6.099   0.706   0.099   0.607   0.000   0.000  556.80  384.10  223.70  160.40    0.00    0.00 -99.000 -99.000 -99.000   0.457   0.103   0.018   0.010   0.004   0.003   0.002   0.001   0.002   0.007   0.010   0.010
   17 203   272  20.00  28.00  15.00 -99.000   5.166   0.000   5.166   0.710   0.012   0.698   0.000   0.000  561.97  384.81  223.71  161.10    0.00    0.00 -99.000 -99.000 -99.000   0.549   0.102   0.018   0.010   0.004   0.003   0.002   0.001   0.002   0.007   0.001   0.000
   17 204   273  14.00  23.00  15.00 -99.000   3.442   0.000   3.442   0.794   0.012   0.782   0.000   0.000  565.41  385.60  223.72  161.88    0.00    0.00 -99.000 -99.000 -99.000   0.634   0.102   0.018   0.010   0.004   0.003   0.002   0.001   0.002   0.007   0.001   0.000
   17 205   274   8.00  18.00  11.00 -99.000   1.777   0.000   1.777   0.911   0.012   0.899   0.000   0.000  567.19  386.51  223.73  162.78    0.00    0.00 -99.000 -99.000 -99.000   0.751   0.101   0.018   0.010   0.004   0.003   0.002   0.001   0.002   0.007   0.001   0.000
   17 206   275  12.00  17.00  11.00 -99.000   2.663   0.000   2.663   2.675   0.012   2.663   0.000   0.000  569.85  389.19  223.74  165.44    0.00    0.00 -99.000 -99.000 -99.000   0.686   0.490   0.165   0.132   0.081   0.071   0.065   0.058   0.112   0.804   0.001   0.000
   17 207   276   6.00  13.00  12.00 -99.000   1.293   0.000   1.293   1.304   0.012   1.293   0.000   0.000  571.14  390.49  223.75  166.74    0.00    0.00 -99.000 -99.000 -99.000   0.342   0.255   0.085   0.097   0.044   0.030   0.027   0.024   0.047   0.340   0.001   0.000
   17 208   277  10.00  19.00  11.00 -99.000   2.323   0.000   2.323   2.335   0.012   2.323   0.000   0.000  573.46  392.83  223.77  169.06    0.00    0.00 -99.000 -99.000 -99.000   0.593   0.433   0.152   0.230   0.112   0.051   0.047   0.042   0.081   0.582   0.001   0.000
   17 209   278  18.00  21.00  14.00 -99.000   4.401   0.000   4.401   4.413   0.012   4.401   0.000   0.000  577.87  397.24  223.78  173.46    0.00    0.00 -99.000 -99.000 -99.000   1.011   0.767   0.269   0.419   0.281   0.140   0.094   0.084   0.162   1.175   0.001   0.000
   17 210   279  24.00  27.00  12.00 -99.000   6.145   0.000   6.145   6.157   0.012   6.145   0.000   0.000  584.01  403.40  223.79  179.61    0.00    0.00 -99.000 -99.000 -99.000   1.293   1.026   0.359   0.570   0.432   0.280   0.135   0.121   0.234   1.696   0.001   0.000
   17 211   280  22.00  32.00  14.00 -99.000   6.018   0.000   6.018   6.030   0.012   6.018   0.000   0.000  590.03  409.43  223.80  185.62    0.00    0.00 -99.000 -99.000 -99.000   1.229   0.985   0.347   0.554   0.431   0.301   0.133   0.120   0.232   1.687   0.001   0.000
   17 212   281  21.00  30.00  15.00 -99.000   5.666   0.000   5.666   1.055   0.012   1.043   0.000   0.000  595.70  410.48  223.81  186.67    0.00    0.00 -99.000 -99.000 -99.000   0.857   0.116   0.020   0.021   0.011   0.005   0.002   0.001   0.002   0.007   0.001   0.000
   17 213   282  23.00  33.00  15.00 -99.000   6.393   0.000   6.393   6.405   0.012   6.393   0.000   0.000  602.09  416.89  223.83  193.06    0.00    0.00 -99.000 -99.000 -99.000   1.435   1.025   0.359   0.567   0.448   0.309   0.137   0.123   0.239   1.749   0.001   0.000
   17 214   283  22.00  30.00  17.00 -99.000   6.094   0.000   6.094   6.106   0.012   6.094   0.000   0.000  608.18  422.99  223.84  199.15    0.00    0.00 -99.000 -99.000 -99.000   1.378   0.978   0.342   0.538   0.429   0.292   0.129   0.117   0.227   1.664   0.001   0.000
   17 215   284  14.00  30.00  16.00 -99.000   3.811   0.000   3.811   3.822   0.012   3.811   0.000   0.000  611.99  426.81  223.85  202.97    0.00    0.00 -99.000 -99.000 -99.000   0.902   0.607   0.211   0.332   0.265   0.178   0.079   0.071   0.139   1.025   0.001   0.000
[...]
   17 148   217  29.00  27.00   9.00 -99.000   6.472   3.411   3.061   2.019   1.496   0.523   0.000   0.000  306.44  173.96   27.44  146.52    0.00    0.00 -99.000 -99.000 -99.000   0.341   0.106   0.019   0.020   0.010   0.006   0.004   0.003   0.004   0.009   0.150   0.015
   17 149   218  27.00  29.00  10.00 -99.000   6.223   3.250   2.974   2.396   1.906   0.490   0.000   0.000  312.66  176.35   29.34  147.01    0.00    0.00 -99.000 -99.000 -99.000   0.310   0.104   0.019   0.019   0.010   0.006   0.004   0.003   0.004   0.009   0.191   0.015
   17 150   219  25.00  28.00  16.00 -99.000   5.969   3.085   2.885   2.880   2.153   0.727   0.000   0.000  318.63  179.23   31.49  147.74    0.00    0.00 -99.000 -99.000 -99.000   0.552   0.102   0.018   0.019   0.010   0.006   0.004   0.003   0.004   0.009   0.215   0.015
   17 151   220  23.00  25.00  15.00 -99.000   5.326   2.721   2.605   2.538   1.594   0.943   0.000   0.000  323.96  181.77   33.09  148.68    0.00    0.00 -99.000 -99.000 -99.000   0.771   0.099   0.018   0.019   0.010   0.006   0.004   0.003   0.004   0.009   0.159   0.018
   17 152   221  23.00  25.00  13.00 -99.000   5.235   2.646   2.589   2.204   1.351   0.853   0.000   0.000  329.19  183.98   34.44  149.54    0.00    0.00 -99.000 -99.000 -99.000   0.684   0.097   0.018   0.019   0.010   0.006   0.004   0.003   0.004   0.009   0.135   0.018
   17 153   222  23.00  26.00  11.00 -99.000   5.204   2.631   2.574   2.396   1.621   0.775   0.000   0.000  334.39  186.37   36.06  150.31    0.00    0.00 -99.000 -99.000 -99.000   0.607   0.095   0.018   0.019   0.010   0.006   0.004   0.003   0.004   0.009   0.162   0.018
   17 154   223  25.00  27.00  12.00 -99.000   5.771   2.867   2.904   3.273   2.393   0.880   0.000   0.000  340.17  189.64   38.45  151.19    0.00    0.00 -99.000 -99.000 -99.000   0.715   0.094   0.017   0.018   0.010   0.006   0.004   0.003   0.004   0.009   0.239   0.017
   17 155   224  12.00  19.00  10.00 -99.000   2.479   1.212   1.267   4.063   3.096   0.966   0.000   0.000  342.64  193.71   41.55  152.16    0.00    0.00 -99.000 -99.000 -99.000   0.805   0.091   0.017   0.018   0.010   0.006   0.004   0.003   0.004   0.009   0.310   0.019
   17 156   225  14.00  21.00   9.00 -99.000   2.941   1.415   1.526   1.880   0.935   0.945   0.000   0.000  345.58  195.59   42.49  153.10    0.00    0.00 -99.000 -99.000 -99.000   0.788   0.088   0.017   0.018   0.010   0.006   0.004   0.003   0.004   0.008   0.094   0.019
   17 157   226   7.00  16.00   8.00 -99.000   1.364   0.649   0.715   2.136   1.421   0.715   0.000   0.000  346.95  197.72   43.91  153.82    0.00    0.00 -99.000 -99.000 -99.000   0.147   0.084   0.030   0.051   0.042   0.036   0.032   0.029   0.052   0.213   0.142   0.020
   17 158   227  21.00  15.00   5.00 -99.000   3.951   1.862   2.089   2.583   0.494   2.089   0.000   0.000  350.90  200.31   44.40  155.91    0.00    0.00 -99.000 -99.000 -99.000   0.442   0.260   0.086   0.145   0.119   0.103   0.092   0.083   0.148   0.612   0.049   0.020
   17 159   228  26.00  22.00   3.00 -99.000   5.292   2.477   2.816   3.883   1.067   2.816   0.000   0.000  356.19  204.19   45.47  158.72    0.00    0.00 -99.000 -99.000 -99.000   0.561   0.364   0.116   0.196   0.162   0.140   0.125   0.113   0.201   0.837   0.107   0.020
   17 160   229  21.00  24.00   7.00 -99.000   4.542   2.113   2.429   5.414   2.985   2.429   0.000   0.000  360.73  209.60   48.45  161.15    0.00    0.00 -99.000 -99.000 -99.000   0.522   0.324   0.096   0.163   0.135   0.117   0.105   0.094   0.169   0.705   0.298   0.020
   17 161   230  27.00  22.00  10.00 -99.000   5.878   2.715   3.164   5.868   2.704   3.164   0.000   0.000  366.61  215.47   51.16  164.31    0.00    0.00 -99.000 -99.000 -99.000   0.668   0.448   0.121   0.208   0.173   0.150   0.135   0.122   0.219   0.920   0.270   0.020
   17 162   231  29.00  26.00   8.00 -99.000   6.506   2.976   3.530   5.783   2.253   3.530   0.000   0.000  373.12  221.25   53.41  167.84    0.00    0.00 -99.000 -99.000 -99.000   0.700   0.508   0.134   0.232   0.194   0.169   0.153   0.138   0.249   1.053   0.225   0.020
   17 163   232  20.00  26.00  11.00 -99.000   4.593   2.081   2.513   4.667   3.664   1.003   0.000   0.000  377.71  225.92   57.07  168.85    0.00    0.00 -99.000 -99.000 -99.000   0.833   0.108   0.014   0.016   0.009   0.005   0.004   0.003   0.004   0.008   0.366   0.020
   17 164   233  29.00  24.00  11.00 -99.000   6.483   2.906   3.578   3.413   2.529   0.884   0.000   0.000  384.19  229.33   59.60  169.73    0.00    0.00 -99.000 -99.000 -99.000   0.719   0.104   0.014   0.015   0.008   0.005   0.004   0.003   0.004   0.008   0.253   0.020
   17 165   234  27.00  24.00  11.00 -99.000   6.027   2.669   3.358   3.437   2.646   0.790   0.000   0.000  390.22  232.77   62.25  170.52    0.00    0.00 -99.000 -99.000 -99.000   0.629   0.101   0.013   0.015   0.008   0.005   0.004   0.003   0.004   0.008   0.265   0.020
   17 166   235  27.00  28.00   9.00 -99.000   6.220   2.724   3.497   3.034   2.196   0.838   0.000   0.000  396.44  235.80   64.44  171.36    0.00    0.00 -99.000 -99.000 -99.000   0.680   0.099   0.013   0.015   0.008   0.005   0.004   0.003   0.004   0.008   0.220   0.018
   17 167   236  25.00  23.00  11.00 -99.000   5.531   2.420   3.111   3.990   3.103   0.887   0.000   0.000  401.97  239.79   67.55  172.25    0.00    0.00 -99.000 -99.000 -99.000   0.732   0.096   0.013   0.014   0.008   0.005   0.004   0.003   0.004   0.008   0.310   0.019
   17 168   237  23.00  20.00  10.00 -99.000   4.839   2.113   2.726   2.546   1.760   0.786   0.000   0.000  406.81  242.34   69.31  173.03    0.00    0.00 -99.000 -99.000 -99.000   0.635   0.093   0.012   0.014   0.008   0.005   0.004   0.003   0.004   0.008   0.176   0.019
   17 169   238  28.00  22.00   7.00 -99.000   5.881   2.561   3.320   1.942   1.233   0.709   0.000   0.000  412.69  244.28   70.54  173.74    0.00    0.00 -99.000 -99.000 -99.000   0.561   0.091   0.012   0.014   0.008   0.005   0.004   0.003   0.004   0.008   0.123   0.017
   17 170   239  30.00  28.00  10.00 -99.000   6.963   3.023   3.940   2.685   2.040   0.644   0.000   0.000  419.66  246.97   72.58  174.39    0.00    0.00 -99.000 -99.000 -99.000   0.498   0.090   0.012   0.014   0.008   0.005   0.004   0.003   0.004   0.008   0.204   0.017
   17 171   240  25.00  30.00  12.00 -99.000   6.027   2.607   3.420   3.573   2.995   0.578   0.000   0.000  425.68  250.54   75.58  174.96    0.00    0.00 -99.000 -99.000 -99.000   0.434   0.088   0.012   0.014   0.008   0.005   0.003   0.003   0.004   0.008   0.300   0.016
   17 172   241  22.00  30.00  14.00 -99.000   5.379   2.313   3.065   3.187   2.673   0.514   0.000   0.000  431.06  253.73   78.25  175.48    0.00    0.00 -99.000 -99.000 -99.000   0.375   0.085   0.011   0.013   0.007   0.005   0.003   0.003   0.004   0.008   0.267   0.015
   17 173   242  25.00  31.00  14.00 -99.000   6.178   2.637   3.542   2.809   2.161   0.648   0.000   0.000  437.24  256.54   80.41  176.13    0.00    0.00 -99.000 -99.000 -99.000   0.513   0.082   0.011   0.013   0.007   0.005   0.003   0.003   0.004   0.008   0.216   0.015
   17 174   243  23.00  29.00  15.00 -99.000   5.651   2.388   3.262   3.149   2.371   0.778   0.000   0.000  442.89  259.69   82.78  176.90    0.00    0.00 -99.000 -99.000 -99.000   0.646   0.080   0.010   0.013   0.007   0.005   0.003   0.002   0.004   0.008   0.237   0.015
   17 175   244  24.00  26.00  14.00 -99.000   5.641   2.357   3.284   2.518   1.824   0.695   0.000   0.000  448.53  262.20   84.60  177.60    0.00    0.00 -99.000 -99.000 -99.000   0.566   0.077   0.010   0.012   0.007   0.005   0.003   0.002   0.004   0.008   0.182   0.013
   17 176   245  15.00  22.00  12.00 -99.000   3.298   1.360   1.938   2.174   1.505   0.669   0.000   0.000  451.83  264.38   86.11  178.27    0.00    0.00 -99.000 -99.000 -99.000   0.543   0.075   0.010   0.012   0.007   0.005   0.003   0.002   0.004   0.008   0.150   0.012
   17 177   246  28.00  29.00  13.00 -99.000   6.770   2.753   4.017   1.635   0.806   0.829   0.000   0.000  458.60  266.01   86.92  179.10    0.00    0.00 -99.000 -99.000 -99.000   0.704   0.074   0.010   0.012   0.007   0.005   0.003   0.002   0.004   0.008   0.081   0.011
   17 178   247  20.00  26.00  16.00 -99.000   4.823   1.936   2.887   4.935   2.048   2.887   0.000   0.000  463.42  270.95   88.96  181.98    0.00    0.00 -99.000 -99.000 -99.000   0.708   0.333   0.080   0.156   0.137   0.124   0.116   0.106   0.201   0.925   0.205   0.013
   17 179   248  20.00  25.00  15.00 -99.000   4.782   1.885   2.897   3.926   1.028   2.897   0.000   0.000  468.20  274.87   89.99  184.88    0.00    0.00 -99.000 -99.000 -99.000   0.780   0.416   0.089   0.140   0.124   0.112   0.105   0.096   0.184   0.851   0.103   0.014
   17 180   249  17.00  22.00  13.00 -99.000   3.865   1.493   2.372   3.331   0.959   2.372   0.000   0.000  472.07  278.20   90.95  187.25    0.00    0.00 -99.000 -99.000 -99.000   0.598   0.397   0.096   0.110   0.098   0.089   0.083   0.076   0.146   0.679   0.096   0.014
   17 181   250  25.00  22.00  13.00 -99.000   5.676   2.146   3.530   4.213   0.682   3.530   0.000   0.000  477.74  282.42   91.63  190.78    0.00    0.00 -99.000 -99.000 -99.000   0.796   0.584   0.179   0.170   0.149   0.136   0.127   0.117   0.224   1.047   0.068   0.015
   17 182   251  19.00  21.00  12.00 -99.000   4.207   1.558   2.649   3.490   0.841   2.649   0.000   0.000  481.95  285.91   92.47  193.43    0.00    0.00 -99.000 -99.000 -99.000   0.559   0.436   0.147   0.130   0.113   0.103   0.097   0.089   0.171   0.803   0.084   0.014
   17 183   252  12.00  19.00  13.00 -99.000   2.610   0.945   1.665   1.691   0.651   1.040   0.000   0.000  484.56  287.60   93.12  194.47    0.00    0.00 -99.000 -99.000 -99.000   0.865   0.118   0.020   0.011   0.006   0.004   0.003   0.002   0.003   0.008   0.065   0.014
   17 184   253  20.00  22.00  12.00 -99.000   4.479   1.584   2.895   1.260   0.305   0.955   0.000   0.000  489.04  288.86   93.43  195.43    0.00    0.00 -99.000 -99.000 -99.000   0.781   0.117   0.020   0.011   0.006   0.004   0.003   0.002   0.003   0.008   0.030   0.014
   17 185   254  23.00  25.00  11.00 -99.000   5.300   1.829   3.471   1.605   0.724   0.881   0.000   0.000  494.34  290.46   94.15  196.31    0.00    0.00 -99.000 -99.000 -99.000   0.708   0.116   0.020   0.011   0.006   0.004   0.003   0.002   0.003   0.008   0.072   0.014
   17 186   255  28.00  29.00  10.00 -99.000   6.715   2.252   4.463   1.929   1.120   0.809   0.000   0.000  501.05  292.39   95.27  197.12    0.00    0.00 -99.000 -99.000 -99.000   0.638   0.114   0.019   0.011   0.006   0.004   0.003   0.002   0.003   0.008   0.112   0.014
   17 187   256  27.00  31.00  12.00 -99.000   6.730   2.183   4.547   2.447   1.707   0.740   0.000   0.000  507.78  294.84   96.98  197.86    0.00    0.00 -99.000 -99.000 -99.000   0.570   0.113   0.019   0.011   0.006   0.004   0.003   0.002   0.003   0.008   0.171   0.013
   17 188   257  19.00  29.00  15.00 -99.000   4.736   1.477   3.259   2.310   1.640   0.670   0.000   0.000  512.52  297.15   98.62  198.53    0.00    0.00 -99.000 -99.000 -99.000   0.503   0.111   0.019   0.011   0.006   0.004   0.003   0.002   0.003   0.008   0.164   0.012
   17 189   258  21.00  30.00  16.00 -99.000   5.336   1.587   3.750   1.576   0.969   0.608   0.000   0.000  517.86  298.72   99.59  199.14    0.00    0.00 -99.000 -99.000 -99.000   0.443   0.109   0.019   0.011   0.006   0.004   0.003   0.002   0.003   0.008   0.097   0.011
   17 190   259  17.00  27.00  16.00 -99.000   4.179   1.175   3.004   3.994   0.990   3.004   0.000   0.000  522.04  302.72  100.58  202.14    0.00    0.00 -99.000 -99.000 -99.000   0.588   0.537   0.183   0.153   0.121   0.112   0.106   0.098   0.191   0.914   0.099   0.011
   17 191   260  17.00  26.00  15.00 -99.000   4.231   1.113   3.118   3.773   0.655   3.118   0.000   0.000  526.27  306.49  101.23  205.26    0.00    0.00 -99.000 -99.000 -99.000   0.800   0.560   0.197   0.170   0.108   0.100   0.095   0.088   0.172   0.827   0.066   0.013
   17 192   261  19.00  23.00  14.00 -99.000   4.537   1.110   3.427   4.039   0.612   3.427   0.000   0.000  530.80  310.53  101.85  208.68    0.00    0.00 -99.000 -99.000 -99.000   0.854   0.587   0.228   0.229   0.118   0.110   0.104   0.097   0.189   0.911   0.061   0.015
   17 193   262  16.00  25.00  13.00 -99.000   3.888   0.878   3.010   3.493   0.483   3.010   0.000   0.000  534.69  314.02  102.33  211.69    0.00    0.00 -99.000 -99.000 -99.000   0.725   0.503   0.196   0.235   0.104   0.096   0.092   0.085   0.167   0.806   0.048   0.015
   17 194   263  28.00  21.00   9.00 -99.000   6.266   1.302   4.965   5.524   0.559   4.965   0.000   0.000  540.96  319.55  102.89  216.66    0.00    0.00 -99.000 -99.000 -99.000   1.088   0.807   0.299   0.426   0.208   0.164   0.157   0.146   0.286   1.385   0.056   0.014
   17 195   264  17.00  20.00   9.00 -99.000   3.739   0.703   3.036   3.668   0.632   3.036   0.000   0.000  544.70  323.21  103.52  219.70    0.00    0.00 -99.000 -99.000 -99.000   0.707   0.487   0.179   0.255   0.141   0.097   0.093   0.086   0.169   0.823   0.063   0.015
   17 196   265  18.00  19.00  11.00 -99.000   4.037   0.693   3.344   3.720   0.376   3.344   0.000   0.000  548.73  326.93  103.89  223.04    0.00    0.00 -99.000 -99.000 -99.000   0.761   0.532   0.188   0.285   0.176   0.106   0.102   0.095   0.187   0.911   0.038   0.015
   17 197   266  25.00  23.00   8.00 -99.000   5.725   0.888   4.836   5.095   0.258   4.836   0.000   0.000  554.46  332.03  104.15  227.88    0.00    0.00 -99.000 -99.000 -99.000   1.013   0.766   0.269   0.420   0.293   0.156   0.150   0.140   0.276   1.352   0.026   0.015
   17 198   267  22.00  26.00  10.00 -99.000   5.311   0.729   4.582   1.591   0.544   1.047   0.000   0.000  559.77  333.62  104.70  228.92    0.00    0.00 -99.000 -99.000 -99.000   0.861   0.117   0.020   0.020   0.009   0.004   0.003   0.002   0.003   0.008   0.054   0.015
   17 199   268  26.00  29.00  11.00 -99.000   6.562   0.774   5.788   1.466   0.503   0.963   0.000   0.000  566.33  335.09  105.20  229.89    0.00    0.00 -99.000 -99.000 -99.000   0.779   0.116   0.020   0.020   0.009   0.004   0.003   0.002   0.003   0.008   0.050   0.015
   17 200   269  26.00  32.00  15.00 -99.000   7.008   0.660   6.348   1.404   0.516   0.888   0.000   0.000  573.34  336.49  105.72  230.77    0.00    0.00 -99.000 -99.000 -99.000   0.705   0.115   0.020   0.020   0.009   0.004   0.003   0.002   0.003   0.007   0.052   0.014
   17 201   270  14.00  27.00  14.00 -99.000   3.543   0.236   3.307   1.164   0.345   0.818   0.000   0.000  576.88  337.65  106.06  231.59    0.00    0.00 -99.000 -99.000 -99.000   0.637   0.114   0.020   0.020   0.009   0.004   0.003   0.002   0.003   0.007   0.035   0.014
   17 202   271  25.00  28.00  13.00 -99.000   6.387   0.115   6.273   0.805   0.048   0.757   0.000   0.000  583.27  338.46  106.11  232.35    0.00    0.00 -99.000 -99.000 -99.000   0.576   0.113   0.020   0.020   0.009   0.004   0.003   0.002   0.003   0.007   0.005   0.013
   17 203   272  20.00  28.00  15.00 -99.000   5.193   0.000   5.193   0.851   0.012   0.839   0.000   0.000  588.46  339.31  106.12  233.19    0.00    0.00 -99.000 -99.000 -99.000   0.659   0.112   0.020   0.020   0.009   0.004   0.003   0.002   0.003   0.007   0.001   0.000
   17 204   273  14.00  23.00  15.00 -99.000   3.458   0.000   3.458   0.925   0.012   0.913   0.000   0.000  591.92  340.23  106.13  234.10    0.00    0.00 -99.000 -99.000 -99.000   0.734   0.111   0.020   0.020   0.009   0.004   0.003   0.002   0.003   0.007   0.001   0.000
   17 205   274   8.00  18.00  11.00 -99.000   1.784   0.000   1.784   1.014   0.012   1.002   0.000   0.000  593.71  341.25  106.14  235.10    0.00    0.00 -99.000 -99.000 -99.000   0.822   0.112   0.020   0.020   0.009   0.004   0.003   0.002   0.003   0.007   0.001   0.000
   17 206   275  12.00  17.00  11.00 -99.000   2.669   0.000   2.669   2.681   0.012   2.669   0.000   0.000  596.37  343.93  106.16  237.77    0.00    0.00 -99.000 -99.000 -99.000   0.608   0.454   0.158   0.224   0.157   0.079   0.076   0.072   0.142   0.699   0.001   0.000
   17 207   276   6.00  13.00  12.00 -99.000   1.293   0.000   1.293   1.305   0.012   1.293   0.000   0.000  597.67  345.23  106.17  239.07    0.00    0.00 -99.000 -99.000 -99.000   0.306   0.232   0.079   0.114   0.085   0.046   0.033   0.031   0.062   0.304   0.001   0.000
   17 208   277  10.00  19.00  11.00 -99.000   2.324   0.000   2.324   2.335   0.012   2.324   0.000   0.000  599.99  347.57  106.18  241.39    0.00    0.00 -99.000 -99.000 -99.000   0.539   0.393   0.138   0.216   0.173   0.112   0.062   0.054   0.107   0.529   0.001   0.000
   17 209   278  18.00  21.00  14.00 -99.000   4.402   0.000   4.402   4.414   0.012   4.402   0.000   0.000  604.39  351.98  106.19  245.79    0.00    0.00 -99.000 -99.000 -99.000   0.923   0.700   0.245   0.388   0.311   0.241   0.169   0.133   0.217   1.074   0.001   0.000
   17 210   279  24.00  27.00  12.00 -99.000   6.148   0.000   6.148   6.160   0.012   6.148   0.000   0.000  610.54  358.14  106.20  251.94    0.00    0.00 -99.000 -99.000 -99.000   1.185   0.937   0.328   0.524   0.421   0.341   0.295   0.244   0.322   1.551   0.001   0.000
   17 211   280  22.00  32.00  14.00 -99.000   6.023   0.000   6.023   6.034   0.012   6.023   0.000   0.000  616.56  364.18  106.22  257.96    0.00    0.00 -99.000 -99.000 -99.000   1.130   0.900   0.318   0.506   0.410   0.338   0.295   0.260   0.328   1.538   0.001   0.000
   17 212   281  21.00  30.00  15.00 -99.000   5.670   0.000   5.670   5.682   0.012   5.670   0.000   0.000  622.23  369.86  106.23  263.63    0.00    0.00 -99.000 -99.000 -99.000   1.042   0.833   0.297   0.476   0.384   0.324   0.284   0.248   0.312   1.470   0.001   0.000
   17 213   282  23.00  33.00  15.00 -99.000   6.393   0.000   6.393   6.405   0.012   6.393   0.000   0.000  628.63  376.27  106.24  270.03    0.00    0.00 -99.000 -99.000 -99.000   1.324   0.928   0.326   0.517   0.416   0.352   0.310   0.270   0.341   1.610   0.001   0.000
   17 214   283  22.00  30.00  17.00 -99.000   6.097   0.000   6.097   6.109   0.012   6.097   0.000   0.000  634.72  382.37  106.25  276.12    0.00    0.00 -99.000 -99.000 -99.000   1.274   0.896   0.310   0.493   0.394   0.331   0.292   0.256   0.323   1.529   0.001   0.000
   17 215   284  14.00  30.00  16.00 -99.000   3.813   0.000   3.813   3.825   0.012   3.813   0.000   0.000  638.54  386.20  106.26  279.94    0.00    0.00 -99.000 -99.000 -99.000   0.837   0.560   0.193   0.305   0.242   0.202   0.179   0.157   0.198   0.941   0.001   0.000
   17 216   285  15.00  28.00  18.00 -99.000   4.106   0.000   4.106   4.118   0.012   4.106   0.000   0.000  642.64  390.32  106.27  284.04    0.00    0.00 -99.000 -99.000 -99.000   0.881   0.611   0.210   0.332   0.264   0.220   0.192   0.168   0.213   1.015   0.001   0.000
   17 217   286  22.00  29.00  17.00 -99.000   5.987   0.000   5.987   5.999   0.012   5.987   0.000   0.000  648.63  396.32  106.29  290.03    0.00    0.00 -99.000 -99.000 -99.000   1.188   0.896   0.309   0.495   0.399   0.331   0.286   0.251   0.318   1.516   0.001   0.000
   17 218   287  13.00  20.00  12.00 -99.000   3.027   0.000   3.027   1.033   0.012   1.021   0.000   0.000  651.66  397.35  106.30  291.05    0.00    0.00 -99.000 -99.000 -99.000   0.832   0.115   0.019   0.020   0.011   0.006   0.004   0.003   0.003   0.007   0.001   0.000
   17 219   288  23.00  23.00   9.00 -99.000   5.408   0.000   5.408   0.957   0.012   0.946   0.000   0.000  657.07  398.31  106.31  292.00    0.00    0.00 -99.000 -99.000 -99.000   0.758   0.114   0.019   0.020   0.011   0.006   0.004   0.003   0.003   0.007   0.001   0.000
