*GHG emissions output file

*DSSAT Cropping System Model Ver. 4.8.5.000 -release  NOV 27, 2025 15:48:48

*RUN   1        : 1                         WHAPS048 TUDU1701    1
 MODEL          : WHAPS048 - Wheat
 EXPERIMENT     : TUDU1701 WH
 DATA PATH      :
 TREATMENT  1   : 1                         WHAPS048
  
!               |---------- Daily (g/ha) ----------|------- Cumulative (kg/ha) --------|---- Cum CO2-equiv kg[CO2eq]/ha ---|
!               Soil CO2  Net CO2      N2O      CH4 Soil CO2  Net CO2      N2O      CH4  Net CO2      N2O      CH4    Total
!                g[C]/ha  g[C]/ha  g[N]/ha  g[C]/ha kg[C]/ha kg[C]/ha kg[N]/ha kg[C]/ha    CO2eq    CO2eq    CO2eq    CO2eq
@YEAR DOY   DAS   CO2GED   CO2END   N2OGED   CH4GED    CO2EC   CO2ENC    N2OEC    CH4EC    CCEQC    NCEQC    MCEQC    TCEQC
   16 298     1    18118     2969     0.01     0.00       18        3     0.00     0.00       11        0        0       11
   16 299     2    18057     2969     0.01     0.00       36        6     0.00     0.00       22        0        0       22
   16 300     3    17557     2938     0.01     0.00       54        9     0.00     0.00       33        0        0       33
   16 301     4    15368     2625     0.02     0.00       69       12     0.00     0.00       42        0        0       42
   16 302     5    12463     2344     0.02     0.00       82       14     0.00     0.00       51        0        0       51
   16 303     6     9245     2031     0.02     0.00       91       16     0.00     0.00       58        0        0       58
   16 304     7     6694     1688     0.03     0.00       98       18     0.00     0.00       64        0        0       65
   16 305     8     4369     1375     0.03     0.00      102       19     0.00     0.00       70        0        0       70
   16 306     9     3254     1219     0.03     0.00      105       20     0.00     0.00       74        0        0       74
   16 307    10     2218     1031     0.03     0.00      107       21     0.00     0.00       78        0        0       78
   16 308    11     2247     1031     0.03     0.00      110       22     0.00     0.00       82        0        0       82
   16 309    12     1666      813     0.03     0.00      111       23     0.00     0.00       85        0        0       85
   16 310    13     1299      688     0.04     0.00      113       24     0.00     0.00       87        0        0       87
   16 311    14     1571      750     0.02     0.00      114       24     0.00     0.00       90        0        0       90
   16 312    15     1722      875     0.01     0.00      116       25     0.00     0.00       93        0        0       93
   16 313    16     1111      531     0.03     0.00      117       26     0.00     0.00       95        0        0       95
   16 314    17      881      469     0.04     0.00      118       26     0.00     0.00       97        0        0       97
   16 315    18      819      406     0.03     0.00      119       27     0.00     0.00       98        0        0       98
   16 316    19      607      406     0.02     0.00      119       27     0.00     0.00      100        0        0      100
   16 317    20      538      313     0.02     0.00      120       27     0.00     0.00      101        0        0      101
   16 318    21      541      281     0.03     0.00      120       28     0.00     0.00      102        0        0      102
   16 319    22      450      250     0.05     0.00      121       28     0.00     0.00      103        0        0      103
   16 320    23      332      188     0.05     0.00      121       28     0.00     0.00      103        0        0      104
   16 321    24      247      219     0.03     0.00      121       28     0.00     0.00      104        0        0      105
   16 322    25      404      156     0.02     0.00      122       29     0.00     0.00      105        0        0      105
   16 323    26      774      469     0.04     0.00      123       29     0.00     0.00      107        0        0      107
   16 324    27     1693      781     0.02     0.00      124       30     0.00     0.00      109        0        0      110
   16 325    28     2627     1156     0.02     0.00      127       31     0.00     0.00      114        0        0      114
   16 326    29     3514     1281     0.05     0.00      130       32     0.00     0.00      118        0        0      119
   16 327    30     3661     1313     0.07     0.00      134       34     0.00     0.00      123        0        0      124
   16 328    31     3716     1281     0.07     0.00      138       35     0.00     0.00      128        0        0      128
   16 329    32     2845     1156     0.08     0.00      141       36     0.00     0.00      132        0        0      133
   16 330    33     3368     1281     0.08     0.00      144       37     0.00     0.00      137        1        0      137
   16 331    34     3885     1344     0.08     0.00      148       39     0.00     0.00      142        1        0      142
   16 332    35     3205     1219     0.08     0.00      151       40     0.00     0.00      146        1        0      147
   16 333    36     1894      906     0.09     0.00      153       41     0.00     0.00      150        1        0      150
   16 334    37      976      563     0.09     0.00      154       41     0.00     0.00      152        1        0      152
   16 335    38      396      250     0.09     0.00      154       42     0.00     0.00      153        1        0      153
   16 336    39      119       63     0.09     0.00      154       42     0.00     0.00      153        1        0      154
   16 337    40       56       63     0.10     0.00      155       42     0.00     0.00      153        1        0      154
   16 338    41       44       31     0.09     0.00      155       42     0.00     0.00      153        1        0      154
   16 339    42       38        0     0.10     0.00      155       42     0.00     0.00      153        1        0      154
   16 340    43       29       31     0.10     0.00      155       42     0.00     0.00      153        1        0      154
   16 341    44       34       31     0.10     0.00      155       42     0.00     0.00      153        1        0      154
   16 342    45        3        0     0.11     0.00      155       42     0.00     0.00      153        1        0      154
   16 343    46        0        0     0.11     0.00      155       42     0.00     0.00      153        1        0      154
   16 344    47        0        0     0.11     0.00      155       42     0.00     0.00      153        1        0      154
   16 345    48        6        0     0.11     0.00      155       42     0.00     0.00      153        1        0      155
   16 346    49       40       31     0.11     0.00      155       42     0.00     0.00      153        1        0      155
   16 347    50       79       31     0.12     0.00      155       42     0.00     0.00      154        1        0      155
   16 348    51      137      125     0.12     0.00      155       42     0.00     0.00      154        1        0      155
   16 349    52      172      125     0.12     0.00      155       42     0.00     0.00      154        1        0      156
   16 350    53      247      156     0.12     0.00      155       42     0.00     0.00      155        1        0      157
   16 351    54      222      156     0.12     0.00      156       42     0.00     0.00      156        2        0      157
   16 352    55      189      156     0.12     0.00      156       43     0.00     0.00      156        2        0      158
   16 353    56      123       31     0.13     0.00      156       43     0.00     0.00      156        2        0      158
   16 354    57      109       94     0.13     0.00      156       43     0.00     0.00      157        2        0      158
   16 355    58       49       63     0.13     0.00      156       43     0.00     0.00      157        2        0      159
   16 356    59       18        0     0.13     0.00      156       43     0.00     0.00      157        2        0      159
   16 357    60       12       31     0.13     0.00      156       43     0.00     0.00      157        2        0      159
   16 358    61        6        0     0.13     0.00      156       43     0.00     0.00      157        2        0      159
   16 359    62        4        0     0.13     0.00      156       43     0.00     0.00      157        2        0      159
   16 360    63       16        0     0.13     0.00      156       43     0.00     0.00      157        2        0      159
   16 361    64       99       31     0.13     0.00      156       43     0.00     0.00      157        2        0      159
   16 362    65      299      219     0.13     0.00      156       43     0.00     0.00      158        2        0      160
   16 363    66      487      313     0.14     0.00      157       43     0.00     0.00      159        2        0      161
   16 364    67      588      313     0.14     0.00      158       44     0.00     0.00      160        2        0      163
   16 365    68      407      281     0.14     0.00      158       44     0.01     0.00      161        2        0      164
   16 366    69      105       94     0.14     0.00      158       44     0.01     0.00      162        2        0      164
   17 001    70        1        0     0.14     0.00      158       44     0.01     0.00      162        3        0      164
   17 002    71        0        0     0.14     0.00      158       44     0.01     0.00      162        3        0      164
   17 003    72        0        0     0.14     0.00      158       44     0.01     0.00      162        3        0      164
   17 004    73        0        0     0.14     0.00      158       44     0.01     0.00      162        3        0      164
   17 005    74        0        0     0.14     0.00      158       44     0.01     0.00      162        3        0      164
   17 006    75        0        0     0.14     0.00      158       44     0.01     0.00      162        3        0      164
   17 007    76        0        0     0.14     0.00      158       44     0.01     0.00      162        3        0      164
   17 008    77        0        0     0.14     0.00      158       44     0.01     0.00      162        3        0      165
   17 009    78        0        0     0.14     0.00      158       44     0.01     0.00      162        3        0      165
   17 010    79        0        0     0.14     0.00      158       44     0.01     0.00      162        3        0      165
   17 011    80        0        0     0.14     0.00      158       44     0.01     0.00      162        3        0      165
   17 012    81        0        0     0.13     0.00      158       44     0.01     0.00      162        3        0      165
   17 013    82        0        0     0.04     0.00      158       44     0.01     0.00      162        3        0      165
   17 014    83        0        0     0.09     0.00      158       44     0.01     0.00      162        3        0      165
   17 015    84        0        0     0.12     0.00      158       44     0.01     0.00      162        3        0      165
   17 016    85        0        0     0.13     0.00      158       44     0.01     0.00      162        3        0      165
   17 017    86        0        0     0.14     0.00      158       44     0.01     0.00      162        3        0      165
   17 018    87        0        0     0.14     0.00      158       44     0.01     0.00      162        4        0      165
   17 019    88        0        0     0.14     0.00      158       44     0.01     0.00      162        4        0      165
   17 020    89        0        0     0.13     0.00      158       44     0.01     0.00      162        4        0      165
   17 021    90        0        0     0.13     0.00      158       44     0.01     0.00      162        4        0      165
   17 022    91        0        0     0.13     0.00      158       44     0.01     0.00      162        4        0      165
   17 023    92        0        0     0.13     0.00      158       44     0.01     0.00      162        4        0      165
   17 024    93        0        0     0.12     0.00      158       44     0.01     0.00      162        4        0      165
   17 025    94        0        0     0.12     0.00      158       44     0.01     0.00      162        4        0      166
   17 026    95        0        0     0.12     0.00      158       44     0.01     0.00      162        4        0      166
   17 027    96        0        0     0.12     0.00      158       44     0.01     0.00      162        4        0      166
   17 028    97        0        0     0.11     0.00      158       44     0.01     0.00      162        4        0      166
   17 029    98        0        0     0.11     0.00      158       44     0.01     0.00      162        4        0      166
   17 030    99        0        0     0.11     0.00      158       44     0.01     0.00      162        4        0      166
   17 031   100        0        0     0.11     0.00      158       44     0.01     0.00      162        4        0      166
   17 032   101        0        0     0.06     0.00      158       44     0.01     0.00      162        4        0      166
   17 033   102        0        0     0.08     0.00      158       44     0.01     0.00      162        4        0      166
   17 034   103        0        0     0.10     0.00      158       44     0.01     0.00      162        4        0      166
   17 035   104        0        0     0.10     0.00      158       44     0.01     0.00      162        4        0      166
   17 036   105        9        0     0.23     0.00      158       44     0.01     0.00      162        5        0      166
   17 037   106       13        0     0.42     0.00      158       44     0.01     0.00      162        5        0      166
   17 038   107       14        0     0.62     0.00      158       44     0.01     0.00      162        5        0      167
   17 039   108       14       31     0.80     0.00      158       44     0.01     0.00      162        5        0      167
   17 040   109        9        0     0.96     0.00      158       44     0.01     0.00      162        6        0      168
   17 041   110        0        0     1.08     0.00      158       44     0.01     0.00      162        6        0      168
   17 042   111        0        0     1.14     0.00      158       44     0.01     0.00      162        7        0      169
   17 043   112        0        0     1.19     0.00      158       44     0.02     0.00      162        7        0      169
   17 044   113        0        0     1.20     0.00      158       44     0.02     0.00      162        8        0      170
   17 045   114        0        0     1.21     0.00      158       44     0.02     0.00      162        9        0      170
   17 046   115        0        0     1.22     0.00      158       44     0.02     0.00      162        9        0      171
   17 047   116        0        0     1.24     0.00      158       44     0.02     0.00      162       10        0      171
   17 048   117        0        0     1.23     0.00      158       44     0.02     0.00      162       10        0      172
   17 049   118        0        0     1.14     0.00      158       44     0.02     0.00      162       11        0      173
   17 050   119        0        0     1.24     0.00      158       44     0.02     0.00      162       11        0      173
   17 051   120        0        0     1.23     0.00      158       44     0.03     0.00      162       12        0      174
   17 052   121       12        0     1.01     0.00      158       44     0.03     0.00      162       12        0      174
   17 053   122       45       31     0.53     0.00      158       44     0.03     0.00      162       13        0      175
   17 054   123      318      156     0.91     0.00      159       44     0.03     0.00      162       13        0      176
   17 055   124     3905      719     1.23     0.00      162       45     0.03     0.00      165       14        0      179
   17 056   125     5666      906     1.35     0.00      168       46     0.03     0.00      168       14        0      183
   17 057   126     4276      750     1.31     0.00      172       47     0.03     0.00      171       15        0      186
   17 058   127     2697      594     1.25     0.00      175       47     0.03     0.00      173       16        0      189
   17 059   128      707      281     1.17     0.00      176       48     0.03     0.00      174       16        0      190
   17 060   129       38       63     0.34     0.00      176       48     0.03     0.00      175       16        0      191
   17 061   130       30        0     0.35     0.00      176       48     0.04     0.00      175       16        0      191
   17 062   131       60       63     0.72     0.00      176       48     0.04     0.00      175       17        0      192
   17 063   132       38        0     0.91     0.00      176       48     0.04     0.00      175       17        0      192
   17 064   133      156       94     0.94     0.00      176       48     0.04     0.00      175       18        0      193
   17 065   134      462      219     0.74     0.00      177       48     0.04     0.00      176       18        0      194
   17 066   135      909      250     0.69     0.00      177       48     0.04     0.00      177       18        0      195
   17 067   136      305      188     0.73     0.00      178       48     0.04     0.00      178       19        0      196
   17 068   137      557      188     0.25     0.00      178       49     0.04     0.00      178       19        0      197
   17 069   138      288      156     0.21     0.00      179       49     0.04     0.00      179       19        0      198
   17 070   139      109       94     0.43     0.00      179       49     0.04     0.00      179       19        0      198
   17 071   140       32       31     0.56     0.00      179       49     0.04     0.00      179       19        0      199
   17 072   141       56        0     0.56     0.00      179       49     0.04     0.00      179       20        0      199
   17 073   142       63       63     0.50     0.00      179       49     0.04     0.00      179       20        0      199
   17 074   143        8        0     0.45     0.00      179       49     0.04     0.00      179       20        0      200
   17 075   144       37       31     0.40     0.00      179       49     0.04     0.00      180       20        0      200
   17 076   145      519      125     0.36     0.00      179       49     0.04     0.00      180       20        0      200
   17 077   146     2511      500     0.32     0.00      182       50     0.04     0.00      182       21        0      202
   17 078   147     3905      594     0.29     0.00      186       50     0.04     0.00      184       21        0      205
   17 079   148     6323      938     0.26     0.00      192       51     0.04     0.00      188       21        0      208
   17 080   149     7658     1281     0.24     0.00      200       52     0.04     0.00      192       21        0      213
   17 081   150     8500     1406     0.21     0.00      208       54     0.04     0.00      197       21        0      218
   17 082   151     6971     1156     0.19     0.00      215       55     0.05     0.00      202       21        0      223
   17 083   152     7110     1250     0.17     0.00      222       56     0.05     0.00      206       21        0      227
   17 084   153     5069     1000     0.15     0.00      227       57     0.05     0.00      210       21        0      231
   17 085   154     4114      844     0.14     0.00      232       58     0.05     0.00      213       21        0      234
   17 086   155     2451      563     0.12     0.00      234       59     0.05     0.00      215       21        0      236
   17 087   156     2977      719     0.11     0.00      237       59     0.05     0.00      218       21        0      239
   17 088   157     2951      719     0.10     0.00      240       60     0.05     0.00      220       21        0      242
   17 089   158     4523     1250     0.09     0.00      244       61     0.05     0.00      225       22        0      246
   17 090   159     5061     1500     0.08     0.00      250       63     0.05     0.00      230       22        0      252
   17 091   160     7130     2219     0.08     0.00      257       65     0.05     0.00      239       22        0      260
   17 092   161     8051     2688     0.07     0.00      265       68     0.05     0.00      248       22        0      270
   17 093   162     8686     3125     0.06     0.00      273       71     0.05     0.00      260       22        0      282
   17 094   163     9112     2969     0.05     0.00      283       74     0.05     0.00      271       22        0      292
   17 095   164     8096     2875     0.05     0.00      291       77     0.05     0.00      281       22        0      303
   17 096   165     6444     2344     0.05     0.00      297       79     0.05     0.00      290       22        0      312
   17 097   166     4309     1625     0.04     0.00      301       81     0.05     0.00      296       22        0      318
   17 098   167     3375     1281     0.04     0.00      305       82     0.05     0.00      301       22        0      322
   17 099   168     3152     1313     0.04     0.00      308       83     0.05     0.00      305       22        0      327
   17 100   169     4041     1625     0.04     0.00      312       85     0.05     0.00      311       22        0      333
   17 101   170     5128     2313     0.04     0.00      317       87     0.05     0.00      320       22        0      342
   17 102   171     5298     2344     0.03     0.00      322       90     0.05     0.00      328       22        0      350
   17 103   172     5150     2500     0.03     0.00      328       92     0.05     0.00      338       22        0      359
   17 104   173     4885     2313     0.03     0.00      332       94     0.05     0.00      346       22        0      368
   17 105   174     4147     2031     0.03     0.00      337       96     0.05     0.00      354       22        0      375
   17 106   175     3452     1750     0.03     0.00      340       98     0.05     0.00      360       22        0      382
   17 107   176     3513     1719     0.03     0.00      344      100     0.05     0.00      366       22        0      388
   17 108   177     3832     1219     0.02     0.00      347      101     0.05     0.00      371       22        0      393
   17 109   178     2016      656     0.01     0.00      349      102     0.05     0.00      373       22        0      395
   17 110   179      372      125     0.02     0.00      350      102     0.05     0.00      374       22        0      396
   17 111   180        0        0     0.02     0.00      350      102     0.05     0.00      374       22        0      396
   17 112   181        0        0     0.03     0.00      350      102     0.05     0.00      374       22        0      396
   17 113   182        0        0     0.02     0.00      350      102     0.05     0.00      374       22        0      396
   17 114   183        0        0     0.02     0.00      350      102     0.05     0.00      374       22        0      396
   17 115   184        0        0     0.03     0.00      350      102     0.05     0.00      374       22        0      396
   17 116   185      333       63     0.01     0.00      350      102     0.05     0.00      374       22        0      396
   17 117   186       16        0     0.01     0.00      350      102     0.05     0.00      374       22        0      396
   17 118   187        0        0     0.01     0.00      350      102     0.05     0.00      374       22        0      396
   17 119   188        0        0     0.01     0.00      350      102     0.05     0.00      374       22        0      396
   17 120   189        0        0     0.02     0.00      350      102     0.05     0.00      374       22        0      396
   17 121   190        0        0     0.02     0.00      350      102     0.05     0.00      374       22        0      396
   17 122   191      337       94     0.01     0.00      350      102     0.05     0.00      374       22        0      396
   17 123   192     2158      906     0.02     0.00      353      103     0.05     0.00      378       22        0      400
   17 124   193     3685     1813     0.02     0.00      356      105     0.05     0.00      384       22        0      406
   17 125   194     4418     2000     0.03     0.00      361      107     0.05     0.00      392       22        0      414
   17 126   195     5236     2500     0.03     0.00      366      109     0.05     0.00      401       22        0      423
   17 127   196     6268     3031     0.03     0.00      372      112     0.05     0.00      412       22        0      434
   17 128   197     6848     3188     0.01     0.00      379      115     0.05     0.00      424       22        0      446
   17 129   198     7017     2875     0.01     0.00      386      118     0.05     0.00      434       22        0      456
   17 130   199     7185     2500     0.02     0.00      393      121     0.05     0.00      443       22        0      465
   17 131   200     6619     2219     0.03     0.00      400      123     0.05     0.00      451       22        0      473
   17 132   201     6209     2156     0.03     0.00      406      125     0.05     0.00      459       22        0      481
   17 133   202     6881     2969     0.03     0.00      413      128     0.05     0.00      470       22        0      492
   17 134   203     8163     3781     0.03     0.00      421      132     0.05     0.00      484       22        0      506
   17 135   204     9791     4656     0.01     0.00      431      137     0.05     0.00      501       22        0      523
   17 136   205    11903     5000     0.01     0.00      443      142     0.05     0.00      520       22        0      542
   17 137   206    13300     4938     0.02     0.00      456      147     0.05     0.00      538       22        0      560
   17 138   207    13454     4750     0.03     0.00      470      151     0.05     0.00      555       22        0      577
   17 139   208    13752     5125     0.04     0.00      483      156     0.05     0.00      574       22        0      596
   17 140   209    13814     5344     0.04     0.00      497      162     0.05     0.00      594       22        0      616
   17 141   210    13577     5031     0.04     0.00      511      167     0.05     0.00      612       22        0      634
   17 142   211    13291     4688     0.04     0.00      524      171     0.05     0.00      629       22        0      651
   17 143   212    13193     4688     0.05     0.00      537      176     0.05     0.00      646       22        0      669
   17 144   213    12453     4531     0.05     0.00      550      181     0.05     0.00      663       22        0      685
   17 145   214    11824     4313     1.01     0.00      561      185     0.05     0.00      679       23        0      702
   17 146   215    12218     4563     1.74     0.00      574      190     0.05     0.00      696       24        0      719
   17 147   216    12341     4875     2.24     0.00      586      194     0.05     0.00      713       25        0      738
   17 148   217    12166     5125     2.53     0.00      598      200     0.06     0.00      732       26        0      758
   17 149   218    12083     5406     2.61     0.00      610      205     0.06     0.00      752       27        0      779
   17 150   219    12861     6125     2.59     0.00      623      211     0.06     0.00      775       28        0      803
   17 151   220    16877     6750     2.27     0.00      640      218     0.06     0.00      799       29        0      829
   17 152   221    17400     7563     2.12     0.00      657      225     0.06     0.00      827       30        0      857
   17 153   222    16819     7844     1.92     0.00      674      233     0.07     0.00      856       31        0      887
   17 154   223    15670     7688     1.72     0.00      690      241     0.07     0.00      884       32        0      916
   17 155   224    16322     7438     1.39     0.00      706      248     0.07     0.00      911       33        0      944
   17 156   225    13435     6594     1.17     0.00      720      255     0.07     0.00      936       33        0      969
   17 157   226    12731     6094     0.96     0.00      732      261     0.07     0.00      958       34        0      992
   17 158   227    12050     5313     0.50     0.00      744      266     0.07     0.00      977       34        0     1011
   17 159   228    10541     4438     0.62     0.00      755      271     0.07     0.00      994       34        0     1028
   17 160   229     8727     3875     0.62     0.00      764      275     0.07     0.00     1008       34        0     1042
   17 161   230     9144     3938     0.32     0.00      773      279     0.07     0.00     1022       35        0     1057
   17 162   231     9332     3938     0.48     0.00      782      283     0.07     0.00     1037       35        0     1072
   17 163   232     9688     4406     0.41     0.00      792      287     0.07     0.00     1053       35        0     1088
   17 164   233    10095     5031     0.36     0.00      802      292     0.08     0.00     1072       35        0     1107
   17 165   234    10075     5188     1.78     0.00      812      297     0.08     0.00     1091       36        0     1127
   17 166   235     9452     5281     2.62     0.00      821      302     0.08     0.00     1110       37        0     1147
   17 167   236    10189     5375     2.94     0.00      832      308     0.08     0.00     1130       39        0     1168
   17 168   237     8979     5125     3.26     0.00      841      313     0.09     0.00     1148       40        0     1189
   17 169   238     7859     4844     3.21     0.00      849      318     0.09     0.00     1166       42        0     1208
   17 170   239     7090     4469     2.99     0.00      856      322     0.09     0.00     1183       43        0     1226
   17 171   240     6779     4500     2.72     0.00      862      327     0.09     0.00     1199       44        0     1244
   17 172   241     6391     4500     2.44     0.00      869      331     0.10     0.00     1216       45        0     1261
   17 173   242     6288     4688     2.17     0.00      875      336     0.10     0.00     1233       46        0     1279
   17 174   243     8012     5031     1.83     0.00      883      341     0.10     0.00     1251       47        0     1299
   17 175   244     7600     5438     1.80     0.00      891      346     0.10     0.00     1271       48        0     1320
   17 176   245     6984     5281     1.65     0.00      898      352     0.10     0.00     1291       49        0     1340
   17 177   246     6642     4969     1.43     0.00      904      357     0.11     0.00     1309       50        0     1359
   17 178   247     7756     4969     1.16     0.00      912      362     0.11     0.00     1327       50        0     1377
   17 179   248     9302     4719     0.89     0.00      921      366     0.11     0.00     1344       51        0     1395
   17 180   249    12338     4781     0.46     0.00      934      371     0.11     0.00     1362       51        0     1413
   17 181   250    12382     4531     0.63     0.00      946      376     0.11     0.00     1379       51        0     1430
   17 182   251    12231     4656     0.80     0.00      958      380     0.11     0.00     1396       51        0     1447
   17 183   252    10467     4469     0.69     0.00      969      385     0.11     0.00     1412       52        0     1464
   17 184   253     8898     4250     0.62     0.00      978      389     0.11     0.00     1428       52        0     1480
   17 185   254     7988     3938     0.55     0.00      986      393     0.11     0.00     1442       52        0     1495
   17 186   255     7264     3969     0.50     0.00      993      397     0.11     0.00     1457       53        0     1509
   17 187   256     6406     3969     0.45     0.00      999      401     0.11     0.00     1471       53        0     1524
   17 188   257     4921     4094     0.41     0.00     1004      405     0.11     0.00     1486       53        0     1539
   17 189   258     5160     4438     0.37     0.00     1009      409     0.11     0.00     1503       53        0     1556
   17 190   259     5453     4781     0.34     0.00     1015      414     0.11     0.00     1520       53        0     1574
   17 191   260    13036     5344     0.11     0.00     1028      420     0.11     0.00     1540       53        0     1593
   17 192   261    13628     5813     0.14     0.00     1042      425     0.11     0.00     1561       53        0     1615
   17 193   262    13328     5688     0.19     0.00     1055      431     0.11     0.00     1582       54        0     1636
   17 194   263    12903     5719     0.20     0.00     1068      437     0.11     0.00     1603       54        0     1657
   17 195   264    11446     5219     0.30     0.00     1079      442     0.11     0.00     1622       54        0     1676
   17 196   265    10177     4719     0.13     0.00     1089      447     0.12     0.00     1639       54        0     1693
   17 197   266     9602     4500     0.27     0.00     1099      451     0.12     0.00     1656       54        0     1710
   17 198   267     8850     4250     0.29     0.00     1108      455     0.12     0.00     1672       54        0     1726
   17 199   268     8340     4313     0.28     0.00     1116      460     0.12     0.00     1687       54        0     1742
   17 200   269     8638     4688     0.28     0.00     1125      464     0.12     0.00     1705       54        0     1759
   17 201   270     9413     5281     0.28     0.00     1134      470     0.12     0.00     1724       54        0     1778
   17 202   271     9754     5688     0.28     0.00     1144      475     0.12     0.00     1745       55        0     1799
   17 203   272    10125     6031     0.28     0.00     1154      481     0.12     0.00     1767       55        0     1822
   17 204   273    11168     6469     0.27     0.00     1165      488     0.12     0.00     1791       55        0     1846
   17 205   274    10724     6344     0.27     0.00     1176      494     0.12     0.00     1814       55        0     1869
   17 206   275    10177     5719     0.27     0.00     1186      500     0.12     0.00     1835       55        0     1890
   17 207   276     9475     5500     0.10     0.00     1196      506     0.12     0.00     1855       55        0     1910
   17 208   277     9194     5500     0.09     0.00     1205      511     0.12     0.00     1875       55        0     1931
   17 209   278     8670     5250     0.10     0.00     1214      516     0.12     0.00     1895       55        0     1950
   17 210   279     9179     5156     0.23     0.00     1223      521     0.12     0.00     1914       55        0     1969
   17 211   280    10281     5781     0.30     0.00     1233      527     0.12     0.00     1935       56        0     1990
   17 212   281    11717     6719     0.31     0.00     1245      534     0.12     0.00     1959       56        0     2015
   17 213   282    13249     7688     0.32     0.00     1258      542     0.12     0.00     1988       56        0     2043
   17 214   283    14832     8531     0.19     0.00     1273      550     0.12     0.00     2019       56        0     2075
   17 215   284    15623     9125     0.37     0.00     1288      559     0.12     0.00     2052       56        0     2109
   17 216   285    15946     9469     0.18     0.00     1304      569     0.12     0.00     2087       56        0     2143
   17 217   286    15960     9500     0.38     0.00     1320      578     0.12     0.00     2122       56        0     2178
   17 218   287    15487     9625     0.43     0.00     1336      588     0.12     0.00     2157       57        0     2214
   17 219   288    13905     8813     0.43     0.00     1350      597     0.12     0.00     2190       57        0     2246

*DSSAT Cropping System Model Ver. 4.8.5.000 -release  NOV 27, 2025 15:48:48

*RUN   2        : 2                         WHAPS048 TUDU1701    2
 MODEL          : WHAPS048 - Wheat
 EXPERIMENT     : TUDU1701 WH
 DATA PATH      :
 TREATMENT  2   : 2                         WHAPS048
  
!               |---------- Daily (g/ha) ----------|------- Cumulative (kg/ha) --------|---- Cum CO2-equiv kg[CO2eq]/ha ---|
!               Soil CO2  Net CO2      N2O      CH4 Soil CO2  Net CO2      N2O      CH4  Net CO2      N2O      CH4    Total
!                g[C]/ha  g[C]/ha  g[N]/ha  g[C]/ha kg[C]/ha kg[C]/ha kg[N]/ha kg[C]/ha    CO2eq    CO2eq    CO2eq    CO2eq
@YEAR DOY   DAS   CO2GED   CO2END   N2OGED   CH4GED    CO2EC   CO2ENC    N2OEC    CH4EC    CCEQC    NCEQC    MCEQC    TCEQC
   16 298     1    18118     2969     0.01     0.00       18        3     0.00     0.00       11        0        0       11
   16 299     2    18057     2969     0.01     0.00       36        6     0.00     0.00       22        0        0       22
   16 300     3    17557     2938     0.01     0.00       54        9     0.00     0.00       33        0        0       33
   16 301     4    15368     2625     0.02     0.00       69       12     0.00     0.00       42        0        0       42
   16 302     5    12463     2344     0.02     0.00       82       14     0.00     0.00       51        0        0       51
   16 303     6     9245     2031     0.02     0.00       91       16     0.00     0.00       58        0        0       58
   16 304     7     6694     1688     0.03     0.00       98       18     0.00     0.00       64        0        0       65
   16 305     8     4369     1375     0.03     0.00      102       19     0.00     0.00       70        0        0       70
   16 306     9     3254     1219     0.03     0.00      105       20     0.00     0.00       74        0        0       74
   16 307    10     2218     1031     0.03     0.00      107       21     0.00     0.00       78        0        0       78
   16 308    11     2247     1031     0.03     0.00      110       22     0.00     0.00       82        0        0       82
   16 309    12     1666      813     0.03     0.00      111       23     0.00     0.00       85        0        0       85
   16 310    13     1299      688     0.04     0.00      113       24     0.00     0.00       87        0        0       87
   16 311    14     1571      750     0.02     0.00      114       24     0.00     0.00       90        0        0       90
   16 312    15     1722      875     0.01     0.00      116       25     0.00     0.00       93        0        0       93
   16 313    16     1111      531     0.03     0.00      117       26     0.00     0.00       95        0        0       95
   16 314    17      881      469     0.04     0.00      118       26     0.00     0.00       97        0        0       97
   16 315    18      819      406     0.03     0.00      119       27     0.00     0.00       98        0        0       98
   16 316    19      607      406     0.02     0.00      119       27     0.00     0.00      100        0        0      100
   16 317    20      538      313     0.02     0.00      120       27     0.00     0.00      101        0        0      101
   16 318    21      541      281     0.03     0.00      120       28     0.00     0.00      102        0        0      102
   16 319    22      450      250     0.05     0.00      121       28     0.00     0.00      103        0        0      103
   16 320    23      332      188     0.05     0.00      121       28     0.00     0.00      103        0        0      104
   16 321    24      247      219     0.03     0.00      121       28     0.00     0.00      104        0        0      105
   16 322    25      404      156     0.02     0.00      122       29     0.00     0.00      105        0        0      105
   16 323    26      774      469     0.04     0.00      123       29     0.00     0.00      107        0        0      107
   16 324    27     1693      781     0.02     0.00      124       30     0.00     0.00      109        0        0      110
   16 325    28     2627     1156     0.02     0.00      127       31     0.00     0.00      114        0        0      114
   16 326    29     3514     1281     0.05     0.00      130       32     0.00     0.00      118        0        0      119
   16 327    30     3661     1313     0.07     0.00      134       34     0.00     0.00      123        0        0      124
   16 328    31     3716     1281     0.07     0.00      138       35     0.00     0.00      128        0        0      128
   16 329    32     2845     1156     0.08     0.00      141       36     0.00     0.00      132        0        0      133
   16 330    33     3368     1281     0.08     0.00      144       37     0.00     0.00      137        1        0      137
   16 331    34     3885     1344     0.08     0.00      148       39     0.00     0.00      142        1        0      142
   16 332    35     3205     1219     0.08     0.00      151       40     0.00     0.00      146        1        0      147
   16 333    36     1894      906     0.09     0.00      153       41     0.00     0.00      150        1        0      150
   16 334    37      976      563     0.09     0.00      154       41     0.00     0.00      152        1        0      152
   16 335    38      396      250     0.09     0.00      154       42     0.00     0.00      153        1        0      153
   16 336    39      119       63     0.09     0.00      154       42     0.00     0.00      153        1        0      154
   16 337    40       56       63     0.10     0.00      155       42     0.00     0.00      153        1        0      154
   16 338    41       44       31     0.09     0.00      155       42     0.00     0.00      153        1        0      154
   16 339    42       38        0     0.10     0.00      155       42     0.00     0.00      153        1        0      154
   16 340    43       29       31     0.10     0.00      155       42     0.00     0.00      153        1        0      154
   16 341    44       34       31     0.10     0.00      155       42     0.00     0.00      153        1        0      154
   16 342    45        3        0     0.11     0.00      155       42     0.00     0.00      153        1        0      154
   16 343    46        0        0     0.11     0.00      155       42     0.00     0.00      153        1        0      154
   16 344    47        0        0     0.11     0.00      155       42     0.00     0.00      153        1        0      154
   16 345    48        6        0     0.11     0.00      155       42     0.00     0.00      153        1        0      155
   16 346    49       40       31     0.11     0.00      155       42     0.00     0.00      153        1        0      155
   16 347    50       79       31     0.12     0.00      155       42     0.00     0.00      154        1        0      155
   16 348    51      137      125     0.12     0.00      155       42     0.00     0.00      154        1        0      155
   16 349    52      172      125     0.12     0.00      155       42     0.00     0.00      154        1        0      156
   16 350    53      247      156     0.12     0.00      155       42     0.00     0.00      155        1        0      157
   16 351    54      222      156     0.12     0.00      156       42     0.00     0.00      156        2        0      157
   16 352    55      189      156     0.12     0.00      156       43     0.00     0.00      156        2        0      158
   16 353    56      123       31     0.13     0.00      156       43     0.00     0.00      156        2        0      158
   16 354    57      109       94     0.13     0.00      156       43     0.00     0.00      157        2        0      158
   16 355    58       49       63     0.13     0.00      156       43     0.00     0.00      157        2        0      159
   16 356    59       18        0     0.13     0.00      156       43     0.00     0.00      157        2        0      159
   16 357    60       12       31     0.13     0.00      156       43     0.00     0.00      157        2        0      159
   16 358    61        6        0     0.13     0.00      156       43     0.00     0.00      157        2        0      159
   16 359    62        4        0     0.13     0.00      156       43     0.00     0.00      157        2        0      159
   16 360    63       16        0     0.13     0.00      156       43     0.00     0.00      157        2        0      159
   16 361    64       99       31     0.13     0.00      156       43     0.00     0.00      157        2        0      159
   16 362    65      299      219     0.13     0.00      156       43     0.00     0.00      158        2        0      160
   16 363    66      487      313     0.14     0.00      157       43     0.00     0.00      159        2        0      161
   16 364    67      588      313     0.14     0.00      158       44     0.00     0.00      160        2        0      163
   16 365    68      407      281     0.14     0.00      158       44     0.01     0.00      161        2        0      164
   16 366    69      105       94     0.14     0.00      158       44     0.01     0.00      162        2        0      164
   17 001    70        1        0     0.14     0.00      158       44     0.01     0.00      162        3        0      164
   17 002    71        0        0     0.14     0.00      158       44     0.01     0.00      162        3        0      164
   17 003    72        0        0     0.14     0.00      158       44     0.01     0.00      162        3        0      164
   17 004    73        0        0     0.14     0.00      158       44     0.01     0.00      162        3        0      164
   17 005    74        0        0     0.14     0.00      158       44     0.01     0.00      162        3        0      164
   17 006    75        0        0     0.14     0.00      158       44     0.01     0.00      162        3        0      164
   17 007    76        0        0     0.14     0.00      158       44     0.01     0.00      162        3        0      164
   17 008    77        0        0     0.14     0.00      158       44     0.01     0.00      162        3        0      165
   17 009    78        0        0     0.14     0.00      158       44     0.01     0.00      162        3        0      165
   17 010    79        0        0     0.14     0.00      158       44     0.01     0.00      162        3        0      165
   17 011    80        0        0     0.14     0.00      158       44     0.01     0.00      162        3        0      165
   17 012    81        0        0     0.13     0.00      158       44     0.01     0.00      162        3        0      165
   17 013    82        0        0     0.04     0.00      158       44     0.01     0.00      162        3        0      165
   17 014    83        0        0     0.09     0.00      158       44     0.01     0.00      162        3        0      165
   17 015    84        0        0     0.12     0.00      158       44     0.01     0.00      162        3        0      165
   17 016    85        0        0     0.13     0.00      158       44     0.01     0.00      162        3        0      165
   17 017    86        0        0     0.14     0.00      158       44     0.01     0.00      162        3        0      165
   17 018    87        0        0     0.14     0.00      158       44     0.01     0.00      162        4        0      165
   17 019    88        0        0     0.14     0.00      158       44     0.01     0.00      162        4        0      165
   17 020    89        0        0     0.13     0.00      158       44     0.01     0.00      162        4        0      165
   17 021    90        0        0     0.13     0.00      158       44     0.01     0.00      162        4        0      165
   17 022    91        0        0     0.13     0.00      158       44     0.01     0.00      162        4        0      165
   17 023    92        0        0     0.13     0.00      158       44     0.01     0.00      162        4        0      165
   17 024    93        0        0     0.12     0.00      158       44     0.01     0.00      162        4        0      165
   17 025    94        0        0     0.12     0.00      158       44     0.01     0.00      162        4        0      166
   17 026    95        0        0     0.12     0.00      158       44     0.01     0.00      162        4        0      166
   17 027    96        0        0     0.12     0.00      158       44     0.01     0.00      162        4        0      166
   17 028    97        0        0     0.11     0.00      158       44     0.01     0.00      162        4        0      166
   17 029    98        0        0     0.11     0.00      158       44     0.01     0.00      162        4        0      166
   17 030    99        0        0     0.11     0.00      158       44     0.01     0.00      162        4        0      166
   17 031   100        0        0     0.11     0.00      158       44     0.01     0.00      162        4        0      166
   17 032   101        0        0     0.06     0.00      158       44     0.01     0.00      162        4        0      166
   17 033   102        0        0     0.08     0.00      158       44     0.01     0.00      162        4        0      166
   17 034   103        0        0     0.10     0.00      158       44     0.01     0.00      162        4        0      166
   17 035   104        0        0     0.10     0.00      158       44     0.01     0.00      162        4        0      166
   17 036   105        9        0     0.41     0.00      158       44     0.01     0.00      162        5        0      166
   17 037   106       13        0     0.64     0.00      158       44     0.01     0.00      162        5        0      167
   17 038   107       14        0     0.81     0.00      158       44     0.01     0.00      162        5        0      167
   17 039   108       14       31     0.94     0.00      158       44     0.01     0.00      162        6        0      167
   17 040   109        9        0     1.02     0.00      158       44     0.01     0.00      162        6        0      168
   17 041   110        0        0     1.06     0.00      158       44     0.01     0.00      162        7        0      168
   17 042   111        0        0     1.07     0.00      158       44     0.02     0.00      162        7        0      169
   17 043   112        0        0     1.06     0.00      158       44     0.02     0.00      162        8        0      169
   17 044   113        0        0     1.03     0.00      158       44     0.02     0.00      162        8        0      170
   17 045   114        0        0     1.01     0.00      158       44     0.02     0.00      162        9        0      170
   17 046   115        0        0     0.99     0.00      158       44     0.02     0.00      162        9        0      171
   17 047   116        0        0     0.98     0.00      158       44     0.02     0.00      162       10        0      171
   17 048   117        0        0     0.95     0.00      158       44     0.02     0.00      162       10        0      172
   17 049   118        0        0     0.86     0.00      158       44     0.02     0.00      162       10        0      172
   17 050   119        0        0     0.92     0.00      158       44     0.02     0.00      162       11        0      173
   17 051   120        0        0     0.90     0.00      158       44     0.02     0.00      162       11        0      173
   17 052   121       12        0     0.73     0.00      158       44     0.02     0.00      162       12        0      173
   17 053   122       45       31     0.38     0.00      158       44     0.03     0.00      162       12        0      174
   17 054   123      318      156     0.65     0.00      159       44     0.03     0.00      162       12        0      175
   17 055   124     3931      719     0.87     0.00      162       45     0.03     0.00      165       13        0      178
   17 056   125     5703      875     0.95     0.00      168       46     0.03     0.00      168       13        0      181
   17 057   126     4306      750     0.91     0.00      172       47     0.03     0.00      171       13        0      184
   17 058   127     2715      563     0.86     0.00      175       47     0.03     0.00      173       14        0      187
   17 059   128      709      344     0.81     0.00      176       48     0.03     0.00      174       14        0      188
   17 060   129       38       31     0.23     0.00      176       48     0.03     0.00      174       14        0      189
   17 061   130       30        0     0.24     0.00      176       48     0.03     0.00      174       14        0      189
   17 062   131       60       31     0.49     0.00      176       48     0.03     0.00      175       15        0      189
   17 063   132       38       31     0.62     0.00      176       48     0.03     0.00      175       15        0      190
   17 064   133      156       94     0.64     0.00      176       48     0.03     0.00      175       15        0      190
   17 065   134      462      219     0.50     0.00      177       48     0.03     0.00      176       15        0      191
   17 066   135      909      250     0.47     0.00      178       48     0.03     0.00      177       16        0      192
   17 067   136      305      188     0.49     0.00      178       48     0.03     0.00      177       16        0      193
   17 068   137      556      188     0.17     0.00      178       49     0.03     0.00      178       16        0      194
   17 069   138      288      125     0.14     0.00      179       49     0.03     0.00      179       16        0      195
   17 070   139      109      125     0.29     0.00      179       49     0.03     0.00      179       16        0      195
   17 071   140       32       31     0.38     0.00      179       49     0.03     0.00      179       16        0      195
   17 072   141       56        0     0.38     0.00      179       49     0.04     0.00      179       17        0      196
   17 073   142       63       94     0.34     0.00      179       49     0.04     0.00      179       17        0      196
   17 074   143        8        0     0.30     0.00      179       49     0.04     0.00      179       17        0      196
   17 075   144       37        0     0.27     0.00      179       49     0.04     0.00      179       17        0      196
   17 076   145      519      156     0.25     0.00      180       49     0.04     0.00      180       17        0      197
   17 077   146     2511      469     0.23     0.00      182       50     0.04     0.00      182       17        0      199
   17 078   147     3905      625     0.21     0.00      186       50     0.04     0.00      184       17        0      201
   17 079   148     6323      906     0.19     0.00      192       51     0.04     0.00      187       17        0      205
   17 080   149     7657     1281     0.17     0.00      200       52     0.04     0.00      192       17        0      210
   17 081   150     8500     1438     0.16     0.00      208       54     0.04     0.00      197       18        0      215
   17 082   151     6971     1125     0.14     0.00      215       55     0.04     0.00      202       18        0      219
   17 083   152     7103     1250     0.13     0.00      223       56     0.04     0.00      206       18        0      224
   17 084   153     5058     1000     0.12     0.00      228       57     0.04     0.00      210       18        0      227
   17 085   154     4108      844     0.11     0.00      232       58     0.04     0.00      213       18        0      231
   17 086   155     2449      563     0.10     0.00      234       59     0.04     0.00      215       18        0      233
   17 087   156     2976      719     0.10     0.00      237       59     0.04     0.00      218       18        0      235
   17 088   157     2951      750     0.09     0.00      240       60     0.04     0.00      220       18        0      238
   17 089   158     4523     1250     0.08     0.00      245       61     0.04     0.00      225       18        0      243
   17 090   159     5060     1469     0.08     0.00      250       63     0.04     0.00      230       18        0      248
   17 091   160     7129     2250     0.07     0.00      257       65     0.04     0.00      239       18        0      257
   17 092   161     8049     2656     0.07     0.00      265       68     0.04     0.00      248       18        0      266
   17 093   162     8682     3125     0.06     0.00      273       71     0.04     0.00      260       18        0      278
   17 094   163     9087     2969     0.05     0.00      283       74     0.04     0.00      271       18        0      289
   17 095   164     8076     2875     0.05     0.00      291       77     0.04     0.00      281       18        0      299
   17 096   165     6431     2344     0.05     0.00      297       79     0.04     0.00      290       18        0      308
   17 097   166     4301     1625     0.05     0.00      301       81     0.04     0.00      296       18        0      314
   17 098   167     3369     1313     0.04     0.00      305       82     0.04     0.00      301       18        0      319
   17 099   168     3146     1281     0.04     0.00      308       83     0.04     0.00      305       18        0      323
   17 100   169     4032     1656     0.04     0.00      312       85     0.04     0.00      311       18        0      330
   17 101   170     5115     2281     0.04     0.00      317       87     0.04     0.00      320       18        0      338
   17 102   171     5283     2375     0.04     0.00      322       90     0.04     0.00      328       18        0      347
   17 103   172     5136     2438     0.03     0.00      327       92     0.04     0.00      337       18        0      356
   17 104   173     4872     2313     0.03     0.00      332       94     0.04     0.00      346       18        0      364
   17 105   174     4135     2094     0.03     0.00      336       96     0.04     0.00      354       18        0      372
   17 106   175     3441     1719     0.03     0.00      340       98     0.04     0.00      360       18        0      378
   17 107   176     3501     1688     0.03     0.00      343      100     0.04     0.00      366       18        0      384
   17 108   177     3803     1219     0.02     0.00      347      101     0.04     0.00      371       18        0      389
   17 109   178     2011      656     0.01     0.00      349      102     0.04     0.00      373       18        0      391
   17 110   179      372      125     0.02     0.00      350      102     0.04     0.00      373       18        0      392
   17 111   180        0        0     0.02     0.00      350      102     0.04     0.00      373       18        0      392
   17 112   181        0        0     0.03     0.00      350      102     0.04     0.00      373       18        0      392
   17 113   182        0        0     0.02     0.00      350      102     0.04     0.00      373       18        0      392
   17 114   183        0        0     0.02     0.00      350      102     0.04     0.00      373       18        0      392
   17 115   184        0        0     0.03     0.00      350      102     0.04     0.00      373       18        0      392
   17 116   185      333       63     0.01     0.00      350      102     0.04     0.00      374       18        0      392
   17 117   186       16        0     0.01     0.00      350      102     0.04     0.00      374       18        0      392
   17 118   187        0        0     0.01     0.00      350      102     0.04     0.00      374       18        0      392
   17 119   188        0        0     0.01     0.00      350      102     0.04     0.00      374       18        0      392
   17 120   189        0        0     0.02     0.00      350      102     0.04     0.00      374       18        0      392
   17 121   190        0        0     0.02     0.00      350      102     0.04     0.00      374       18        0      392
   17 122   191      339       94     0.01     0.00      350      102     0.04     0.00      374       18        0      392
   17 123   192     2139      875     0.02     0.00      352      103     0.04     0.00      377       18        0      396
   17 124   193     3672     1844     0.02     0.00      356      105     0.04     0.00      384       18        0      402
   17 125   194     4411     2063     0.03     0.00      361      107     0.04     0.00      392       18        0      410
   17 126   195     5239     2469     0.03     0.00      366      109     0.04     0.00      401       18        0      419
   17 127   196     6276     3031     0.03     0.00      372      112     0.04     0.00      412       19        0      430
   17 128   197     6857     3188     0.01     0.00      379      115     0.04     0.00      423       19        0      442
   17 129   198     7028     2875     0.01     0.00      386      118     0.04     0.00      434       19        0      452
   17 130   199     7209     2500     0.02     0.00      393      121     0.04     0.00      443       19        0      462
   17 131   200     6662     2188     0.03     0.00      400      123     0.04     0.00      451       19        0      470
   17 132   201     6256     2156     0.03     0.00      406      125     0.04     0.00      459       19        0      478
   17 133   202     6915     2938     0.03     0.00      413      128     0.04     0.00      470       19        0      488
   17 134   203     8181     3781     0.03     0.00      421      132     0.04     0.00      484       19        0      502
   17 135   204     9804     4688     0.01     0.00      431      137     0.04     0.00      501       19        0      520
   17 136   205    11923     4969     0.01     0.00      443      141     0.04     0.00      519       19        0      538
   17 137   206    13339     4906     0.02     0.00      456      146     0.04     0.00      537       19        0      556
   17 138   207    13523     4750     0.03     0.00      470      151     0.04     0.00      555       19        0      573
   17 139   208    13829     5125     0.04     0.00      484      156     0.04     0.00      573       19        0      592
   17 140   209    13873     5313     0.04     0.00      497      162     0.04     0.00      593       19        0      612
   17 141   210    13613     5000     0.04     0.00      511      167     0.04     0.00      611       19        0      630
   17 142   211    13376     4688     0.04     0.00      524      171     0.04     0.00      628       19        0      647
   17 143   212    13286     4656     0.05     0.00      538      176     0.04     0.00      646       19        0      664
   17 144   213    12468     4531     0.05     0.00      550      180     0.04     0.00      662       19        0      681
   17 145   214    11839     4344     0.85     0.00      562      185     0.04     0.00      678       19        0      697
   17 146   215    12238     4563     1.38     0.00      574      189     0.04     0.00      695       20        0      715
   17 147   216    12353     4844     1.73     0.00      587      194     0.04     0.00      713       21        0      733
   17 148   217    12144     5156     1.93     0.00      599      199     0.05     0.00      732       21        0      753
   17 149   218    12020     5406     1.98     0.00      611      205     0.05     0.00      751       22        0      774
   17 150   219    12749     6063     1.95     0.00      624      211     0.05     0.00      774       23        0      797
   17 151   220    16673     6781     1.70     0.00      640      218     0.05     0.00      799       24        0      823
   17 152   221    17161     7531     1.57     0.00      657      225     0.05     0.00      826       25        0      851
   17 153   222    16580     7750     1.42     0.00      674      233     0.05     0.00      855       26        0      880
   17 154   223    15439     7625     1.27     0.00      689      241     0.06     0.00      883       26        0      909
   17 155   224    16085     7375     1.02     0.00      705      248     0.06     0.00      910       27        0      936
   17 156   225    13237     6531     0.87     0.00      719      254     0.06     0.00      934       27        0      961
   17 157   226    12547     5969     0.71     0.00      731      260     0.06     0.00      956       27        0      983
   17 158   227    11884     5281     0.37     0.00      743      266     0.06     0.00      975       28        0     1002
   17 159   228    10405     4375     0.47     0.00      754      270     0.06     0.00      991       28        0     1019
   17 160   229     8621     3844     0.47     0.00      762      274     0.06     0.00     1005       28        0     1033
   17 161   230     9042     3875     0.25     0.00      771      278     0.06     0.00     1019       28        0     1047
   17 162   231     9223     3906     0.37     0.00      780      282     0.06     0.00     1034       28        0     1062
   17 163   232     9568     4375     0.32     0.00      790      286     0.06     0.00     1050       28        0     1078
   17 164   233     9957     4938     0.29     0.00      800      291     0.06     0.00     1068       29        0     1096
   17 165   234     9922     5125     1.44     0.00      810      296     0.06     0.00     1087       29        0     1116
   17 166   235     9297     5219     2.07     0.00      819      301     0.06     0.00     1106       30        0     1136
   17 167   236    10021     5250     2.31     0.00      829      307     0.07     0.00     1125       31        0     1156
   17 168   237     8806     5125     2.56     0.00      838      312     0.07     0.00     1144       32        0     1176
   17 169   238     7698     4688     2.53     0.00      846      316     0.07     0.00     1161       34        0     1195
   17 170   239     6941     4438     2.36     0.00      853      321     0.07     0.00     1177       35        0     1212
   17 171   240     6632     4438     2.16     0.00      859      325     0.08     0.00     1194       36        0     1229
   17 172   241     6245     4438     1.95     0.00      865      330     0.08     0.00     1210       37        0     1247
   17 173   242     6132     4594     1.76     0.00      872      334     0.08     0.00     1227       37        0     1264
   17 174   243     7808     5031     1.49     0.00      879      339     0.08     0.00     1245       38        0     1283
   17 175   244     7360     5344     1.49     0.00      887      345     0.08     0.00     1265       39        0     1304
   17 176   245     6771     5219     1.38     0.00      894      350     0.08     0.00     1284       40        0     1324
   17 177   246     6458     4844     1.20     0.00      900      355     0.09     0.00     1302       40        0     1342
   17 178   247     7587     4875     0.99     0.00      908      360     0.09     0.00     1320       41        0     1360
   17 179   248     9190     4656     0.79     0.00      917      364     0.09     0.00     1337       41        0     1378
   17 180   249    12211     4719     0.40     0.00      929      369     0.09     0.00     1354       41        0     1395
   17 181   250    12254     4500     0.56     0.00      941      373     0.09     0.00     1371       41        0     1412
   17 182   251    12057     4594     0.70     0.00      953      378     0.09     0.00     1387       42        0     1429
   17 183   252    10231     4500     0.63     0.00      964      383     0.09     0.00     1404       42        0     1446
   17 184   253     8578     4125     0.57     0.00      972      387     0.09     0.00     1419       42        0     1461
   17 185   254     7664     3875     0.51     0.00      980      391     0.09     0.00     1433       43        0     1476
   17 186   255     6860     3906     0.47     0.00      987      394     0.09     0.00     1448       43        0     1490
   17 187   256     5821     3906     0.44     0.00      992      398     0.09     0.00     1462       43        0     1505
   17 188   257     4810     4094     0.40     0.00      997      402     0.09     0.00     1477       43        0     1520
   17 189   258     5098     4375     0.37     0.00     1002      407     0.09     0.00     1493       43        0     1536
   17 190   259     5393     4781     0.34     0.00     1008      412     0.09     0.00     1511       43        0     1554
   17 191   260    13047     5313     0.11     0.00     1021      417     0.09     0.00     1530       44        0     1574
   17 192   261    13713     5750     0.14     0.00     1035      423     0.09     0.00     1551       44        0     1595
   17 193   262    13391     5688     0.19     0.00     1048      428     0.09     0.00     1572       44        0     1616
   17 194   263    12953     5656     0.21     0.00     1061      434     0.09     0.00     1593       44        0     1637
   17 195   264    11497     5219     0.31     0.00     1072      439     0.09     0.00     1612       44        0     1656
   17 196   265    10232     4688     0.13     0.00     1083      444     0.09     0.00     1629       44        0     1673
   17 197   266     9633     4438     0.28     0.00     1092      448     0.09     0.00     1646       44        0     1690
   17 198   267     8879     4250     0.31     0.00     1101      453     0.09     0.00     1661       44        0     1705
   17 199   268     8365     4313     0.30     0.00     1109      457     0.09     0.00     1677       44        0     1721
   17 200   269     8663     4656     0.29     0.00     1118      462     0.10     0.00     1694       45        0     1739
   17 201   270     9438     5250     0.29     0.00     1128      467     0.10     0.00     1713       45        0     1758
   17 202   271     9778     5656     0.29     0.00     1137      473     0.10     0.00     1734       45        0     1779
   17 203   272    10149     6031     0.29     0.00     1148      479     0.10     0.00     1756       45        0     1801
   17 204   273    11191     6438     0.28     0.00     1159      485     0.10     0.00     1780       45        0     1825
   17 205   274    10744     6250     0.28     0.00     1169      491     0.10     0.00     1803       45        0     1848
   17 206   275    10194     5750     0.28     0.00     1180      497     0.10     0.00     1824       45        0     1869
   17 207   276     9493     5406     0.10     0.00     1189      502     0.10     0.00     1844       45        0     1889
   17 208   277     9219     5531     0.09     0.00     1198      508     0.10     0.00     1864       45        0     1909
   17 209   278     8699     5156     0.10     0.00     1207      513     0.10     0.00     1883       45        0     1928
   17 210   279     9203     5188     0.24     0.00     1216      518     0.10     0.00     1902       46        0     1948
   17 211   280    10308     5750     0.31     0.00     1227      524     0.10     0.00     1923       46        0     1969
   17 212   281    11744     6625     0.32     0.00     1238      531     0.10     0.00     1947       46        0     1993
   17 213   282    13280     7719     0.33     0.00     1252      538     0.10     0.00     1976       46        0     2022
   17 214   283    14868     8469     0.20     0.00     1266      547     0.10     0.00     2007       46        0     2053
   17 215   284    15653     9094     0.38     0.00     1282      556     0.10     0.00     2040       46        0     2086
   17 216   285    15979     9469     0.19     0.00     1298      565     0.10     0.00     2075       46        0     2121
   17 217   286    15989     9469     0.39     0.00     1314      575     0.10     0.00     2110       47        0     2156
   17 218   287    15498     9531     0.44     0.00     1330      584     0.10     0.00     2145       47        0     2191
   17 219   288    13913     8844     0.44     0.00     1343      593     0.10     0.00     2177       47        0     2224

*DSSAT Cropping System Model Ver. 4.8.5.000 -release  NOV 27, 2025 15:48:48

*RUN   3        : 3                         WHAPS048 TUDU1701    3
 MODEL          : WHAPS048 - Wheat
 EXPERIMENT     : TUDU1701 WH
 DATA PATH      :
 TREATMENT  3   : 3                         WHAPS048
  
!               |---------- Daily (g/ha) ----------|------- Cumulative (kg/ha) --------|---- Cum CO2-equiv kg[CO2eq]/ha ---|
!               Soil CO2  Net CO2      N2O      CH4 Soil CO2  Net CO2      N2O      CH4  Net CO2      N2O      CH4    Total
!                g[C]/ha  g[C]/ha  g[N]/ha  g[C]/ha kg[C]/ha kg[C]/ha kg[N]/ha kg[C]/ha    CO2eq    CO2eq    CO2eq    CO2eq
@YEAR DOY   DAS   CO2GED   CO2END   N2OGED   CH4GED    CO2EC   CO2ENC    N2OEC    CH4EC    CCEQC    NCEQC    MCEQC    TCEQC
   16 298     1    18118     2969     0.01     0.00       18        3     0.00     0.00       11        0        0       11
   16 299     2    18057     2969     0.01     0.00       36        6     0.00     0.00       22        0        0       22
   16 300     3    17557     2938     0.01     0.00       54        9     0.00     0.00       33        0        0       33
   16 301     4    15368     2625     0.02     0.00       69       12     0.00     0.00       42        0        0       42
   16 302     5    12463     2344     0.02     0.00       82       14     0.00     0.00       51        0        0       51
   16 303     6     9245     2031     0.02     0.00       91       16     0.00     0.00       58        0        0       58
   16 304     7     6694     1688     0.03     0.00       98       18     0.00     0.00       64        0        0       65
   16 305     8     4369     1375     0.03     0.00      102       19     0.00     0.00       70        0        0       70
   16 306     9     3254     1219     0.03     0.00      105       20     0.00     0.00       74        0        0       74
   16 307    10     2218     1031     0.03     0.00      107       21     0.00     0.00       78        0        0       78
   16 308    11     2247     1031     0.03     0.00      110       22     0.00     0.00       82        0        0       82
   16 309    12     1666      813     0.03     0.00      111       23     0.00     0.00       85        0        0       85
   16 310    13     1299      688     0.04     0.00      113       24     0.00     0.00       87        0        0       87
   16 311    14     1571      750     0.02     0.00      114       24     0.00     0.00       90        0        0       90
   16 312    15     1722      875     0.01     0.00      116       25     0.00     0.00       93        0        0       93
   16 313    16     1111      531     0.03     0.00      117       26     0.00     0.00       95        0        0       95
   16 314    17      881      469     0.04     0.00      118       26     0.00     0.00       97        0        0       97
   16 315    18      819      406     0.03     0.00      119       27     0.00     0.00       98        0        0       98
   16 316    19      607      406     0.02     0.00      119       27     0.00     0.00      100        0        0      100
   16 317    20      538      313     0.02     0.00      120       27     0.00     0.00      101        0        0      101
   16 318    21      541      281     0.03     0.00      120       28     0.00     0.00      102        0        0      102
   16 319    22      450      250     0.05     0.00      121       28     0.00     0.00      103        0        0      103
   16 320    23      332      188     0.05     0.00      121       28     0.00     0.00      103        0        0      104
   16 321    24      247      219     0.03     0.00      121       28     0.00     0.00      104        0        0      105
   16 322    25      404      156     0.02     0.00      122       29     0.00     0.00      105        0        0      105
   16 323    26      774      469     0.04     0.00      123       29     0.00     0.00      107        0        0      107
   16 324    27     1693      781     0.02     0.00      124       30     0.00     0.00      109        0        0      110
   16 325    28     2627     1156     0.02     0.00      127       31     0.00     0.00      114        0        0      114
   16 326    29     3514     1281     0.05     0.00      130       32     0.00     0.00      118        0        0      119
   16 327    30     3661     1313     0.07     0.00      134       34     0.00     0.00      123        0        0      124
   16 328    31     3716     1281     0.07     0.00      138       35     0.00     0.00      128        0        0      128
   16 329    32     2845     1156     0.08     0.00      141       36     0.00     0.00      132        0        0      133
   16 330    33     3368     1281     0.08     0.00      144       37     0.00     0.00      137        1        0      137
   16 331    34     3885     1344     0.08     0.00      148       39     0.00     0.00      142        1        0      142
   16 332    35     3205     1219     0.08     0.00      151       40     0.00     0.00      146        1        0      147
   16 333    36     1894      906     0.09     0.00      153       41     0.00     0.00      150        1        0      150
   16 334    37      976      563     0.09     0.00      154       41     0.00     0.00      152        1        0      152
   16 335    38      396      250     0.09     0.00      154       42     0.00     0.00      153        1        0      153
   16 336    39      119       63     0.09     0.00      154       42     0.00     0.00      153        1        0      154
   16 337    40       56       63     0.10     0.00      155       42     0.00     0.00      153        1        0      154
   16 338    41       44       31     0.09     0.00      155       42     0.00     0.00      153        1        0      154
   16 339    42       38        0     0.10     0.00      155       42     0.00     0.00      153        1        0      154
   16 340    43       29       31     0.10     0.00      155       42     0.00     0.00      153        1        0      154
   16 341    44       34       31     0.10     0.00      155       42     0.00     0.00      153        1        0      154
   16 342    45        3        0     0.11     0.00      155       42     0.00     0.00      153        1        0      154
   16 343    46        0        0     0.11     0.00      155       42     0.00     0.00      153        1        0      154
   16 344    47        0        0     0.11     0.00      155       42     0.00     0.00      153        1        0      154
   16 345    48        6        0     0.11     0.00      155       42     0.00     0.00      153        1        0      155
   16 346    49       40       31     0.11     0.00      155       42     0.00     0.00      153        1        0      155
   16 347    50       79       31     0.12     0.00      155       42     0.00     0.00      154        1        0      155
[...]
   17 059   128      666      281     0.06     0.00      173       48     0.01     0.00      177        5        0      182
   17 060   129       38       63     0.02     0.00      173       48     0.01     0.00      177        5        0      182
   17 061   130       30        0     0.02     0.00      173       48     0.01     0.00      177        5        0      182
   17 062   131       60       63     0.04     0.00      173       48     0.01     0.00      177        5        0      182
   17 063   132       38        0     0.05     0.00      173       48     0.01     0.00      177        5        0      182
   17 064   133      156      125     0.05     0.00      173       48     0.01     0.00      178        5        0      183
   17 065   134      441      250     0.04     0.00      174       49     0.01     0.00      178        5        0      184
   17 066   135      804      250     0.04     0.00      175       49     0.01     0.00      179        5        0      185
   17 067   136      305      188     0.05     0.00      175       49     0.01     0.00      180        5        0      185
   17 068   137      511      219     0.02     0.00      176       49     0.01     0.00      181        5        0      186
   17 069   138      286      125     0.01     0.00      176       49     0.01     0.00      181        5        0      187
   17 070   139      109       94     0.03     0.00      176       50     0.01     0.00      182        5        0      187
   17 071   140       32       31     0.04     0.00      176       50     0.01     0.00      182        5        0      187
   17 072   141       56        0     0.04     0.00      176       50     0.01     0.00      182        5        0      187
   17 073   142       63       63     0.04     0.00      176       50     0.01     0.00      182        6        0      188
   17 074   143        8        0     0.04     0.00      176       50     0.01     0.00      182        6        0      188
   17 075   144       37       31     0.04     0.00      176       50     0.01     0.00      182        6        0      188
   17 076   145      462      156     0.04     0.00      177       50     0.01     0.00      183        6        0      188
   17 077   146     2136      594     0.04     0.00      179       50     0.01     0.00      185        6        0      190
   17 078   147     3259      750     0.03     0.00      182       51     0.01     0.00      188        6        0      193
   17 079   148     5326     1188     0.04     0.00      187       52     0.01     0.00      192        6        0      198
   17 080   149     6399     1594     0.03     0.00      194       54     0.01     0.00      198        6        0      203
   17 081   150     6996     1750     0.03     0.00      201       56     0.01     0.00      204        6        0      210
   17 082   151     5808     1500     0.03     0.00      206       57     0.01     0.00      210        6        0      215
   17 083   152     5943     1500     0.03     0.00      212       59     0.01     0.00      215        6        0      221
   17 084   153     4503     1156     0.03     0.00      217       60     0.01     0.00      220        6        0      225
   17 085   154     3708     1000     0.03     0.00      221       61     0.01     0.00      223        6        0      229
   17 086   155     2259      563     0.03     0.00      223       61     0.01     0.00      225        6        0      231
   17 087   156     2796      781     0.03     0.00      226       62     0.01     0.00      228        6        0      234
   17 088   157     2841      813     0.03     0.00      229       63     0.01     0.00      231        6        0      237
   17 089   158     4481     1313     0.03     0.00      233       64     0.01     0.00      236        6        0      242
   17 090   159     5139     1438     0.03     0.00      238       66     0.01     0.00      241        6        0      247
   17 091   160     7444     2219     0.03     0.00      246       68     0.01     0.00      249        6        0      255
   17 092   161     8772     2688     0.02     0.00      254       71     0.01     0.00      259        6        0      265
   17 093   162     9802     3094     0.02     0.00      264       74     0.01     0.00      271        6        0      276
   17 094   163    10194     3031     0.02     0.00      274       77     0.01     0.00      282        6        0      287
   17 095   164     9239     2875     0.02     0.00      284       80     0.01     0.00      292        6        0      298
   17 096   165     7467     2375     0.02     0.00      291       82     0.01     0.00      301        6        0      307
   17 097   166     5059     1656     0.02     0.00      296       84     0.01     0.00      307        6        0      313
   17 098   167     3997     1313     0.02     0.00      300       85     0.01     0.00      312        6        0      318
   17 099   168     3789     1313     0.02     0.00      304       86     0.01     0.00      317        6        0      323
   17 100   169     4952     1688     0.02     0.00      309       88     0.01     0.00      323        6        0      329
   17 101   170     6459     2344     0.02     0.00      315       90     0.01     0.00      331        6        0      337
   17 102   171     6847     2500     0.02     0.00      322       93     0.01     0.00      341        6        0      347
   17 103   172     6732     2500     0.02     0.00      329       95     0.01     0.00      350        6        0      356
   17 104   173     6494     2500     0.02     0.00      335       98     0.01     0.00      359        6        0      365
   17 105   174     5535     2125     0.02     0.00      341      100     0.01     0.00      367        6        0      373
   17 106   175     4624     1813     0.02     0.00      346      102     0.01     0.00      373        6        0      379
   17 107   176     4687     1813     0.02     0.00      350      104     0.01     0.00      380        6        0      386
   17 108   177     4492     1406     0.02     0.00      355      105     0.01     0.00      385        6        0      391
   17 109   178     2446      719     0.01     0.00      357      106     0.01     0.00      388        6        0      394
   17 110   179      450       94     0.02     0.00      358      106     0.01     0.00      388        6        0      394
   17 111   180        0        0     0.03     0.00      358      106     0.01     0.00      388        6        0      394
   17 112   181        0        0     0.03     0.00      358      106     0.01     0.00      388        6        0      394
   17 113   182        0        0     0.02     0.00      358      106     0.01     0.00      388        6        0      394
   17 114   183        0        0     0.03     0.00      358      106     0.01     0.00      388        6        0      394
   17 115   184        0        0     0.03     0.00      358      106     0.01     0.00      388        6        0      394
   17 116   185      341       63     0.01     0.00      358      106     0.01     0.00      388        6        0      394
   17 117   186       15        0     0.01     0.00      358      106     0.01     0.00      388        6        0      394
   17 118   187        0        0     0.01     0.00      358      106     0.01     0.00      388        6        0      394
   17 119   188        0        0     0.01     0.00      358      106     0.01     0.00      388        6        0      394
   17 120   189        0        0     0.02     0.00      358      106     0.01     0.00      388        6        0      395
   17 121   190        0        0     0.03     0.00      358      106     0.01     0.00      388        6        0      395
   17 122   191      384       94     0.01     0.00      358      106     0.01     0.00      389        6        0      395
   17 123   192     2415      844     0.02     0.00      361      107     0.01     0.00      392        6        0      398
   17 124   193     4465     1594     0.02     0.00      365      108     0.01     0.00      398        6        0      404
   17 125   194     5305     1844     0.03     0.00      371      110     0.01     0.00      405        6        0      411
   17 126   195     6327     2219     0.03     0.00      377      112     0.01     0.00      413        6        0      419
   17 127   196     7611     2656     0.03     0.00      385      115     0.01     0.00      422        6        0      429
   17 128   197     8475     2813     0.01     0.00      393      118     0.01     0.00      433        6        0      439
   17 129   198     7919     2656     0.01     0.00      401      121     0.01     0.00      442        6        0      449
   17 130   199     7775     2375     0.02     0.00      409      123     0.01     0.00      451        6        0      457
   17 131   200     7118     2031     0.03     0.00      416      125     0.01     0.00      459        6        0      465
   17 132   201     6967     2000     0.04     0.00      423      127     0.01     0.00      466        6        0      472
   17 133   202     8261     2625     0.04     0.00      431      130     0.01     0.00      476        6        0      482
   17 134   203    10087     3250     0.04     0.00      441      133     0.01     0.00      488        6        0      494
   17 135   204    11371     4281     0.01     0.00      452      137     0.01     0.00      503        6        0      509
   17 136   205    13247     4688     0.02     0.00      466      142     0.01     0.00      520        6        0      527
   17 137   206    14414     4625     0.03     0.00      480      146     0.01     0.00      537        6        0      544
   17 138   207    14549     4531     0.05     0.00      495      151     0.01     0.00      554        6        0      560
   17 139   208    15280     4750     0.05     0.00      510      156     0.01     0.00      571        6        0      578
   17 140   209    15343     4938     0.05     0.00      525      161     0.01     0.00      590        6        0      596
   17 141   210    14187     4844     0.06     0.00      539      166     0.01     0.00      607        6        0      614
   17 142   211    13197     4688     0.06     0.00      553      170     0.01     0.00      625        6        0      631
   17 143   212    12684     4656     0.07     0.00      565      175     0.01     0.00      642        6        0      648
   17 144   213    11895     4563     0.07     0.00      577      179     0.01     0.00      658        6        0      665
   17 145   214    10957     4438     0.07     0.00      588      184     0.01     0.00      675        6        0      681
   17 146   215    11345     4656     0.08     0.00      600      189     0.01     0.00      692        7        0      698
   17 147   216    11610     4906     0.08     0.00      611      193     0.01     0.00      710        7        0      716
   17 148   217    11684     5188     0.09     0.00      623      199     0.01     0.00      729        7        0      735
   17 149   218    11891     5406     0.09     0.00      635      204     0.01     0.00      749        7        0      755
   17 150   219    13035     6156     0.09     0.00      648      210     0.01     0.00      771        7        0      778
   17 151   220    17087     7156     0.08     0.00      665      217     0.01     0.00      798        7        0      804
   17 152   221    17983     7875     0.09     0.00      683      225     0.01     0.00      826        7        0      833
   17 153   222    17982     8250     0.10     0.00      701      233     0.01     0.00      857        7        0      864
   17 154   223    17383     8281     0.11     0.00      718      242     0.01     0.00      887        7        0      894
   17 155   224    18327     8313     0.11     0.00      737      250     0.01     0.00      918        7        0      925
   17 156   225    15641     7500     0.12     0.00      752      258     0.01     0.00      945        7        0      952
   17 157   226    14673     6969     0.12     0.00      767      265     0.02     0.00      971        7        0      978
   17 158   227    13578     6188     0.07     0.00      780      271     0.02     0.00      993        7        0     1000
   17 159   228    11835     5281     0.12     0.00      792      276     0.02     0.00     1013        7        0     1020
   17 160   229     9972     4500     0.14     0.00      802      280     0.02     0.00     1029        7        0     1037
   17 161   230    10331     4563     0.08     0.00      813      285     0.02     0.00     1046        7        0     1053
   17 162   231    10663     4531     0.15     0.00      823      290     0.02     0.00     1063        7        0     1070
   17 163   232    11393     5125     0.15     0.00      835      295     0.02     0.00     1082        7        0     1089
   17 164   233    12705     6063     0.15     0.00      847      301     0.02     0.00     1104        7        0     1111
   17 165   234    13087     6531     0.16     0.00      860      307     0.02     0.00     1128        8        0     1135
   17 166   235    12790     6625     0.16     0.00      873      314     0.02     0.00     1152        8        0     1160
   17 167   236    13762     6938     0.16     0.00      887      321     0.02     0.00     1177        8        0     1185
   17 168   237    12919     6688     0.17     0.00      900      328     0.02     0.00     1202        8        0     1210
   17 169   238    11679     6344     0.17     0.00      912      334     0.02     0.00     1225        8        0     1233
   17 170   239    10744     6031     0.18     0.00      922      340     0.02     0.00     1247        8        0     1255
   17 171   240    10558     6063     0.19     0.00      933      346     0.02     0.00     1270        8        0     1278
   17 172   241    10389     6250     0.19     0.00      943      352     0.02     0.00     1293        8        0     1301
   17 173   242    10677     6563     0.20     0.00      954      359     0.02     0.00     1317        8        0     1325
   17 174   243    12896     7281     0.18     0.00      967      366     0.02     0.00     1343        8        0     1352
   17 175   244    13357     7875     0.20     0.00      980      374     0.02     0.00     1372        8        0     1381
   17 176   245    12830     7875     0.21     0.00      993      382     0.02     0.00     1401        8        0     1410
   17 177   246    12070     7406     0.21     0.00     1005      389     0.02     0.00     1428        9        0     1437
   17 178   247    12955     7250     0.21     0.00     1018      396     0.02     0.00     1455        9        0     1464
   17 179   248    13269     7219     0.10     0.00     1031      404     0.02     0.00     1482        9        0     1490
   17 180   249    14607     7219     0.10     0.00     1046      411     0.02     0.00     1508        9        0     1517
   17 181   250    14366     7063     0.14     0.00     1060      418     0.02     0.00     1534        9        0     1543
   17 182   251    14700     7031     0.25     0.00     1075      425     0.02     0.00     1560        9        0     1569
   17 183   252    13350     6594     0.27     0.00     1088      432     0.02     0.00     1584        9        0     1593
   17 184   253    12009     6219     0.26     0.00     1100      438     0.02     0.00     1607        9        0     1616
   17 185   254    11165     5969     0.26     0.00     1112      444     0.02     0.00     1629        9        0     1638
   17 186   255    10939     6031     0.26     0.00     1122      450     0.02     0.00     1651        9        0     1660
   17 187   256    10976     6219     0.27     0.00     1133      456     0.02     0.00     1674       10        0     1683
   17 188   257    11436     6688     0.27     0.00     1145      463     0.02     0.00     1698       10        0     1708
   17 189   258    12004     7156     0.27     0.00     1157      470     0.02     0.00     1724       10        0     1734
   17 190   259    12584     7781     0.28     0.00     1169      478     0.02     0.00     1753       10        0     1763
   17 191   260    14530     8406     0.09     0.00     1184      486     0.02     0.00     1784       10        0     1794
   17 192   261    15028     8781     0.10     0.00     1199      495     0.02     0.00     1816       10        0     1826
   17 193   262    14819     8594     0.14     0.00     1214      503     0.02     0.00     1848       10        0     1858
   17 194   263    14309     8219     0.16     0.00     1228      512     0.02     0.00     1878       10        0     1888
   17 195   264    13404     7594     0.30     0.00     1242      519     0.02     0.00     1906       10        0     1916
   17 196   265    11634     6969     0.12     0.00     1253      526     0.02     0.00     1931       10        0     1942
   17 197   266    11123     6531     0.26     0.00     1264      533     0.02     0.00     1955       10        0     1966
   17 198   267    10456     6281     0.33     0.00     1275      539     0.02     0.00     1978       11        0     1989
   17 199   268    10090     6219     0.33     0.00     1285      545     0.02     0.00     2001       11        0     2012
   17 200   269    10768     6781     0.33     0.00     1296      552     0.02     0.00     2026       11        0     2037
   17 201   270    12041     7688     0.33     0.00     1308      560     0.02     0.00     2054       11        0     2065
   17 202   271    12699     8313     0.34     0.00     1320      568     0.02     0.00     2085       11        0     2096
   17 203   272    13255     8781     0.34     0.00     1334      577     0.02     0.00     2117       11        0     2128
   17 204   273    14364     9281     0.34     0.00     1348      586     0.02     0.00     2151       12        0     2163
   17 205   274    13864     9250     0.35     0.00     1362      595     0.03     0.00     2185       12        0     2197
   17 206   275    12807     8188     0.35     0.00     1375      604     0.03     0.00     2215       12        0     2227
   17 207   276    11159     7594     0.12     0.00     1386      611     0.03     0.00     2243       12        0     2255
   17 208   277    10211     7125     0.11     0.00     1396      618     0.03     0.00     2269       12        0     2281
   17 209   278     9278     6438     0.12     0.00     1405      625     0.03     0.00     2293       12        0     2305
   17 210   279     9772     6531     0.28     0.00     1415      631     0.03     0.00     2317       12        0     2329
   17 211   280    10848     7156     0.37     0.00     1426      638     0.03     0.00     2343       12        0     2355
   17 212   281    12479     8281     0.38     0.00     1438      647     0.03     0.00     2373       13        0     2386
   17 213   282    14018     9563     0.39     0.00     1452      656     0.03     0.00     2408       13        0     2421
   17 214   283    15725    10625     0.23     0.00     1468      667     0.03     0.00     2447       13        0     2460
   17 215   284    16730    11344     0.44     0.00     1485      678     0.03     0.00     2489       13        0     2502
   17 216   285    17070    11781     0.21     0.00     1502      690     0.03     0.00     2532       13        0     2545
   17 217   286    17098    11781     0.43     0.00     1519      702     0.03     0.00     2575       13        0     2589
   17 218   287    16805    11844     0.51     0.00     1536      714     0.03     0.00     2619       14        0     2632
   17 219   288    15168    10906     0.51     0.00     1551      725     0.03     0.00     2659       14        0     2673
