*N2O emissions output file

*DSSAT Cropping System Model Ver. 4.8.5.000 -release  NOV 27, 2025 15:48:48

*RUN   1        : 1                         WHAPS048 TUDU1701    1
 MODEL          : WHAPS048 - Wheat
 EXPERIMENT     : TUDU1701 WH
 DATA PATH      :
 TREATMENT  1   : 1                         WHAPS048
  
!              |------------------------------ Cumulative -----------------------------|------------------------------ Daily ----------------------------------|
!               N2Oemit  N2emit  NOemit   Denit  Nitrif   N2O-denit+nit      N2      NO N2Oemit  N2emit  NOemit   Denit  Nitrif   N2O-denit+nit      N2      NO   Denitrification (g[N]/ha) by soil depth (cm):                                   Nitrification (g[N]/ha) by soil depth (cm):                                     N2O flux (g[N]/ha) by soil depth (cm):                                          N2 flux (g[N]/ha) by soil depth (cm):                                           NO flux (g[N]/ha) by soil depth (cm):
!                 kg/ha   kg/ha   kg/ha   kg/ha   kg/ha   kg/ha   kg/ha   kg/ha   kg/ha    g/ha    g/ha    g/ha    g/ha    g/ha    g/ha    g/ha    g/ha    g/ha     0-5    5-15   15-20   20-30   30-40   40-50   50-60   60-70   70-90  90-210     0-5    5-15   15-20   20-30   30-40   40-50   50-60   60-70   70-90  90-210     0-5    5-15   15-20   20-30   30-40   40-50   50-60   60-70   70-90  90-210     0-5    5-15   15-20   20-30   30-40   40-50   50-60   60-70   70-90  90-210     0-5    5-15   15-20   20-30   30-40   40-50   50-60   60-70   70-90  90-210
@YEAR DOY   DAS   N2OEC    N2EC    NOEC    NDNC    NITC   N2ODC   N2ONC   N2FLC   NOFLC  N2OGED   N2GED   NOGED    NDND   NITRD   N2ODD   N2OND   N2FLD   NOFLD   NDN1D   NDN2D   NDN3D   NDN4D   NDN5D   NDN6D   NDN7D   NDN8D   NDN9D   NDN10   NIT1D   NIT2D   NIT3D   NIT4D   NIT5D   NIT6D   NIT7D   NIT8D   NIT9D   NIT10   N2O1D   N2O2D   N2O3D   N2O4D   N2O5D   N2O6D   N2O7D   N2O8D   N2O9D   N2O10   N2F1D   N2F2D   N2F3D   N2F4D   N2F5D   N2F6D   N2F7D   N2F8D   N2F9D   N2F10   NOF1D   NOF2D   NOF3D   NOF4D   NOF5D   NOF6D   NOF7D   NOF8D   NOF9D   NOF10
   16 298     1    0.00    0.00    0.00    0.00     1.4   0.000   0.001   0.000   0.007     0.0     0.0     0.1     0.0    1430    0.00    1.43    0.00    7.01     0.0     0.0     0.0     0.0     0.0     0.0     0.0     0.0     0.0     0.0     24.     52.     27.     56.     50.     60.     62.     64.    135.    142.     0.0     0.1     0.0     0.1     0.1     0.1     0.1     0.1     0.1     0.1     0.0     0.0     0.0     0.0     0.0     0.0     0.0     0.0     0.0     0.0     0.4     0.6     0.3     0.5     0.3     0.4     0.3     0.3     0.6     0.5
   16 299     2    0.00    0.00    0.00    0.00     2.6   0.000   0.003   0.000   0.012     0.0     0.0     0.1     0.0    1212    0.00    1.21    0.00    4.62     0.0     0.0     0.0     0.0     0.0     0.0     0.0     0.0     0.0     0.0     17.     39.     23.     48.     44.     51.     53.     55.    115.    121.     0.0     0.0     0.0     0.0     0.0     0.1     0.1     0.1     0.1     0.1     0.0     0.0     0.0     0.0     0.0     0.0     0.0     0.0     0.0     0.0     0.1     0.4     0.2     0.3     0.2     0.3     0.2     0.2     0.4     0.4
   16 300     3    0.00    0.00    0.00    0.00     3.7   0.000   0.004   0.000   0.015     0.0     0.0     0.1     0.0    1017    0.00    1.02    0.00    3.12     0.0     0.0     0.0     0.0     0.0     0.0     0.0     0.0     0.0     0.0     13.     27.     19.     40.     38.     42.     44.     46.     97.    102.     0.0     0.0     0.0     0.0     0.0     0.0     0.0     0.0     0.1     0.1     0.0     0.0     0.0     0.0     0.0     0.0     0.0     0.0     0.0     0.0     0.0     0.2     0.1     0.2     0.2     0.2     0.2     0.2     0.3     0.3
   16 301     4    0.00    0.00    0.00    0.00     4.5   0.000   0.004   0.000   0.017     0.0     0.0     0.2     0.0     830    0.00    0.83    0.00    2.06     0.0     0.0     0.0     0.0     0.0     0.0     0.0     0.0     0.0     0.0     10.     17.     15.     32.     31.     34.     36.     38.     78.     83.     0.0     0.0     0.0     0.0     0.0     0.0     0.0     0.0     0.1     0.1     0.0     0.0     0.0     0.0     0.0     0.0     0.0     0.0     0.0     0.0     0.0     0.1     0.1     0.1     0.1     0.1     0.1     0.1     0.2     0.2
   16 302     5    0.00    0.00    0.00    0.00     5.2   0.000   0.005   0.000   0.018     0.0     0.0     0.2     0.0     678    0.00    0.68    0.00    1.36     0.0     0.0     0.0     0.0     0.0     0.0     0.0     0.0     0.0     0.0      6.     10.     12.     26.     29.     27.     29.     30.     63.     68.     0.0     0.0     0.0     0.0     0.0     0.0     0.0     0.0     0.1     0.1     0.0     0.0     0.0     0.0     0.0     0.0     0.0     0.0     0.0     0.0     0.0     0.1     0.1     0.1     0.1     0.1     0.1     0.1     0.1     0.1
   16 303     6    0.00    0.00    0.00    0.00     5.7   0.000   0.006   0.000   0.019     0.0     0.0     0.2     0.0     554    0.00    0.55    0.00    0.89     0.0     0.0     0.0     0.0     0.0     0.0     0.0     0.0     0.0     0.0      4.      6.     10.     21.     23.     22.     24.     25.     51.     55.     0.0     0.0     0.0     0.0     0.0     0.0     0.0     0.0     0.1     0.1     0.0     0.0     0.0     0.0     0.0     0.0     0.0     0.0     0.0     0.0     0.0     0.0     0.0     0.1     0.1     0.0     0.0     0.0     0.1     0.1
   16 304     7    0.00    0.00    0.00    0.00     6.2   0.000   0.006   0.000   0.020     0.0     0.0     0.2     0.0     465    0.00    0.46    0.00    0.60     0.0     0.0     0.0     0.0     0.0     0.0     0.0     0.0     0.0     0.0      3.      4.      8.     17.     19.     18.     20.     21.     43.     46.     0.0     0.0     0.0     0.0     0.0     0.0     0.0     0.0     0.0     0.0     0.0     0.0     0.0     0.0     0.0     0.0     0.0     0.0     0.0     0.0     0.0     0.0     0.0     0.0     0.0     0.0     0.0     0.0     0.1     0.1
   16 305     8    0.00    0.00    0.00    0.00     6.6   0.000   0.007   0.000   0.020     0.0     0.0     0.2     0.0     395    0.00    0.39    0.00    0.47     0.0     0.0     0.0     0.0     0.0     0.0     0.0     0.0     0.0     0.0      2.      2.      7.     14.     16.     15.     17.     18.     36.     39.     0.0     0.0     0.0     0.0     0.0     0.0     0.0     0.0     0.0     0.0     0.0     0.0     0.0     0.0     0.0     0.0     0.0     0.0     0.0     0.0     0.0     0.0     0.0     0.0     0.0     0.0     0.0     0.0     0.0     0.0
   16 306     9    0.00    0.00    0.00    0.00     6.9   0.000   0.007   0.000   0.021     0.0     0.0     0.2     0.0     348    0.00    0.35    0.00    0.42     0.0     0.0     0.0     0.0     0.0     0.0     0.0     0.0     0.0     0.0      2.      2.      6.     13.     14.     13.     15.     15.     32.     35.     0.0     0.0     0.0     0.0     0.0     0.0     0.0     0.0     0.0     0.0     0.0     0.0     0.0     0.0     0.0     0.0     0.0     0.0     0.0     0.0     0.0     0.0     0.0     0.0     0.0     0.0     0.0     0.0     0.0     0.0
   16 307    10    0.00    0.00    0.00    0.00     7.2   0.000   0.007   0.000   0.021     0.0     0.0     0.2     0.0     307    0.00    0.31    0.00    0.37     0.0     0.0     0.0     0.0     0.0     0.0     0.0     0.0     0.0     0.0      2.      1.      5.     11.     13.     12.     13.     14.     28.     31.     0.0     0.0     0.0     0.0     0.0     0.0     0.0     0.0     0.0     0.0     0.0     0.0     0.0     0.0     0.0     0.0     0.0     0.0     0.0     0.0     0.0     0.0     0.0     0.0     0.0     0.0     0.0     0.0     0.0     0.0
   16 308    11    0.00    0.00    0.00    0.00     7.5   0.000   0.008   0.000   0.021     0.0     0.0     0.2     0.0     282    0.00    0.28    0.00    0.34     0.0     0.0     0.0     0.0     0.0     0.0     0.0     0.0     0.0     0.0      2.      1.      5.     10.     12.     11.     12.     12.     25.     28.     0.0     0.0     0.0     0.0     0.0     0.0     0.0     0.0     0.0     0.0     0.0     0.0     0.0     0.0     0.0     0.0     0.0     0.0     0.0     0.0     0.0     0.0     0.0     0.0     0.0     0.0     0.0     0.0     0.0     0.0
   16 309    12    0.00    0.00    0.00    0.00     7.8   0.000   0.008   0.000   0.022     0.0     0.0     0.2     0.0     250    0.00    0.25    0.00    0.30     0.0     0.0     0.0     0.0     0.0     0.0     0.0     0.0     0.0     0.0      1.      1.      4.      9.     10.      9.     10.     11.     22.     25.     0.0     0.0     0.0     0.0     0.0     0.0     0.0     0.0     0.0     0.0     0.0     0.0     0.0     0.0     0.0     0.0     0.0     0.0     0.0     0.0     0.0     0.0     0.0     0.0     0.0     0.0     0.0     0.0     0.0     0.0
   16 310    13    0.00    0.00    0.00    0.00     8.0   0.000   0.008   0.000   0.022     0.0     0.0     0.2     0.0     223    0.00    0.22    0.00    0.27     0.0     0.0     0.0     0.0     0.0     0.0     0.0     0.0     0.0     0.0      1.      1.      4.      8.      9.      8.      9.     10.     20.     22.     0.0     0.0     0.0     0.0     0.0     0.0     0.0     0.0     0.0     0.0     0.0     0.0     0.0     0.0     0.0     0.0     0.0     0.0     0.0     0.0     0.0     0.0     0.0     0.0     0.0     0.0     0.0     0.0     0.0     0.0
   16 311    14    0.00    0.00    0.00    0.00     8.2   0.000   0.008   0.000   0.022     0.0     0.0     0.1     0.0     210    0.00    0.21    0.00    0.25     0.0     0.0     0.0     0.0     0.0     0.0     0.0     0.0     0.0     0.0      1.      1.      3.      8.      8.      8.      9.      9.     19.     21.     0.0     0.0     0.0     0.0     0.0     0.0     0.0     0.0     0.0     0.0     0.0     0.0     0.0     0.0     0.0     0.0     0.0     0.0     0.0     0.0     0.0     0.0     0.0     0.0     0.0     0.0     0.0     0.0     0.0     0.0
   16 312    15    0.00    0.00    0.00    0.00     8.4   0.000   0.008   0.000   0.022     0.0     0.0     0.1     0.0     195    0.00    0.19    0.00    0.22     0.0     0.0     0.0     0.0     0.0     0.0     0.0     0.0     0.0     0.0      1.      1.      3.      6.      8.      7.      8.      9.     17.     19.     0.0     0.0     0.0     0.0     0.0     0.0     0.0     0.0     0.0     0.0     0.0     0.0     0.0     0.0     0.0     0.0     0.0     0.0     0.0     0.0     0.0     0.0     0.0     0.0     0.0     0.0     0.0     0.0     0.0     0.0
   16 313    16    0.00    0.00    0.00    0.00     8.6   0.000   0.009   0.000   0.022     0.0     0.0     0.1     0.0     173    0.00    0.17    0.00    0.20     0.0     0.0     0.0     0.0     0.0     0.0     0.0     0.0     0.0     0.0      1.      1.      3.      6.      7.      6.      7.      7.     15.     17.     0.0     0.0     0.0     0.0     0.0     0.0     0.0     0.0     0.0     0.0     0.0     0.0     0.0     0.0     0.0     0.0     0.0     0.0     0.0     0.0     0.0     0.0     0.0     0.0     0.0     0.0     0.0     0.0     0.0     0.0
   16 314    17    0.00    0.00    0.00    0.00     8.7   0.000   0.009   0.000   0.023     0.0     0.0     0.2     0.0     157    0.00    0.16    0.00    0.18     0.0     0.0     0.0     0.0     0.0     0.0     0.0     0.0     0.0     0.0      1.      1.      3.      5.      6.      6.      6.      7.     13.     15.     0.0     0.0     0.0     0.0     0.0     0.0     0.0     0.0     0.0     0.0     0.0     0.0     0.0     0.0     0.0     0.0     0.0     0.0     0.0     0.0     0.0     0.0     0.0     0.0     0.0     0.0     0.0     0.0     0.0     0.0
   16 315    18    0.00    0.00    0.00    0.00     8.9   0.000   0.009   0.000   0.023     0.0     0.0     0.1     0.0     142    0.00    0.14    0.00    0.16     0.0     0.0     0.0     0.0     0.0     0.0     0.0     0.0     0.0     0.0      1.      1.      2.      5.      5.      4.      6.      6.     12.     14.     0.0     0.0     0.0     0.0     0.0     0.0     0.0     0.0     0.0     0.0     0.0     0.0     0.0     0.0     0.0     0.0     0.0     0.0     0.0     0.0     0.0     0.0     0.0     0.0     0.0     0.0     0.0     0.0     0.0     0.0
   16 316    19    0.00    0.00    0.00    0.00     9.0   0.000   0.009   0.000   0.023     0.0     0.0     0.1     0.0     126    0.00    0.13    0.00    0.13     0.0     0.0     0.0     0.0     0.0     0.0     0.0     0.0     0.0     0.0      0.      1.      2.      4.      4.      4.      4.      4.     11.     12.     0.0     0.0     0.0     0.0     0.0     0.0     0.0     0.0     0.0     0.0     0.0     0.0     0.0     0.0     0.0     0.0     0.0     0.0     0.0     0.0     0.0     0.0     0.0     0.0     0.0     0.0     0.0     0.0     0.0     0.0
   16 317    20    0.00    0.00    0.00    0.00     9.1   0.000   0.009   0.000   0.023     0.0     0.0     0.1     0.0     113    0.00    0.11    0.00    0.11     0.0     0.0     0.0     0.0     0.0     0.0     0.0     0.0     0.0     0.0      0.      0.      1.      3.      4.      3.      4.      4.      8.     11.     0.0     0.0     0.0     0.0     0.0     0.0     0.0     0.0     0.0     0.0     0.0     0.0     0.0     0.0     0.0     0.0     0.0     0.0     0.0     0.0     0.0     0.0     0.0     0.0     0.0     0.0     0.0     0.0     0.0     0.0
   16 318    21    0.00    0.00    0.00    0.00     9.2   0.000   0.009   0.000   0.023     0.0     0.0     0.2     0.0     107    0.00    0.11    0.00    0.11     0.0     0.0     0.0     0.0     0.0     0.0     0.0     0.0     0.0     0.0      1.      0.      2.      3.      4.      3.      4.      4.      7.     10.     0.0     0.0     0.0     0.0     0.0     0.0     0.0     0.0     0.0     0.0     0.0     0.0     0.0     0.0     0.0     0.0     0.0     0.0     0.0     0.0     0.0     0.0     0.0     0.0     0.0     0.0     0.0     0.0     0.0     0.0
   16 319    22    0.00    0.00    0.00    0.00     9.3   0.000   0.009   0.000   0.023     0.0     0.0     0.2     0.0      99    0.00    0.10    0.00    0.11     0.0     0.0     0.0     0.0     0.0     0.0     0.0     0.0     0.0     0.0      1.      0.      2.      3.      3.      3.      3.      3.      7.      9.     0.0     0.0     0.0     0.0     0.0     0.0     0.0     0.0     0.0     0.0     0.0     0.0     0.0     0.0     0.0     0.0     0.0     0.0     0.0     0.0     0.0     0.0     0.0     0.0     0.0     0.0     0.0     0.0     0.0     0.0
   16 320    23    0.00    0.00    0.00    0.00     9.4   0.000   0.009   0.000   0.023     0.1     0.0     0.2     0.0      90    0.00    0.09    0.00    0.10     0.0     0.0     0.0     0.0     0.0     0.0     0.0     0.0     0.0     0.0      1.      0.      2.      3.      3.      3.      3.      3.      6.      8.     0.0     0.0     0.0     0.0     0.0     0.0     0.0     0.0     0.0     0.0     0.0     0.0     0.0     0.0     0.0     0.0     0.0     0.0     0.0     0.0     0.0     0.0     0.0     0.0     0.0     0.0     0.0     0.0     0.0     0.0
   16 321    24    0.00    0.00    0.00    0.00     9.5   0.000   0.009   0.000   0.023     0.0     0.0     0.1     0.0      81    0.00    0.08    0.00    0.09     0.0     0.0     0.0     0.0     0.0     0.0     0.0     0.0     0.0     0.0      0.      0.      1.      3.      3.      3.      3.      3.      6.      7.     0.0     0.0     0.0     0.0     0.0     0.0     0.0     0.0     0.0     0.0     0.0     0.0     0.0     0.0     0.0     0.0     0.0     0.0     0.0     0.0     0.0     0.0     0.0     0.0     0.0     0.0     0.0     0.0     0.0     0.0
   16 322    25    0.00    0.00    0.00    0.00     9.6   0.000   0.010   0.000   0.024     0.0     0.0     0.1     0.0      78    0.00    0.08    0.00    0.08     0.0     0.0     0.0     0.0     0.0     0.0     0.0     0.0     0.0     0.0      0.      0.      1.      3.      3.      3.      3.      3.      5.      7.     0.0     0.0     0.0     0.0     0.0     0.0     0.0     0.0     0.0     0.0     0.0     0.0     0.0     0.0     0.0     0.0     0.0     0.0     0.0     0.0     0.0     0.0     0.0     0.0     0.0     0.0     0.0     0.0     0.0     0.0
   16 323    26    0.00    0.00    0.00    0.00     9.6   0.000   0.010   0.000   0.024     0.0     0.0     0.2     0.0      79    0.00    0.08    0.00    0.09     0.0     0.0     0.0     0.0     0.0     0.0     0.0     0.0     0.0     0.0      0.      0.      1.      3.      3.      3.      3.      3.      5.      7.     0.0     0.0     0.0     0.0     0.0     0.0     0.0     0.0     0.0     0.0     0.0     0.0     0.0     0.0     0.0     0.0     0.0     0.0     0.0     0.0     0.0     0.0     0.0     0.0     0.0     0.0     0.0     0.0     0.0     0.0
   16 324    27    0.00    0.00    0.00    0.00     9.7   0.000   0.010   0.000   0.024     0.0     0.0     0.1     0.0      81    0.00    0.08    0.00    0.08     0.0     0.0     0.0     0.0     0.0     0.0     0.0     0.0     0.0     0.0      0.      0.      1.      3.      3.      3.      3.      3.      6.      6.     0.0     0.0     0.0     0.0     0.0     0.0     0.0     0.0     0.0     0.0     0.0     0.0     0.0     0.0     0.0     0.0     0.0     0.0     0.0     0.0     0.0     0.0     0.0     0.0     0.0     0.0     0.0     0.0     0.0     0.0
   16 325    28    0.00    0.00    0.00    0.00     9.8   0.000   0.010   0.000   0.024     0.0     0.0     0.1     0.0      80    0.00    0.08    0.00    0.08     0.0     0.0     0.0     0.0     0.0     0.0     0.0     0.0     0.0     0.0      0.      0.      1.      3.      3.      3.      3.      3.      6.      6.     0.0     0.0     0.0     0.0     0.0     0.0     0.0     0.0     0.0     0.0     0.0     0.0     0.0     0.0     0.0     0.0     0.0     0.0     0.0     0.0     0.0     0.0     0.0     0.0     0.0     0.0     0.0     0.0     0.0     0.0
   16 326    29    0.00    0.00    0.00    0.00     9.9   0.000   0.010   0.000   0.024     0.0     0.0     0.2     0.0      83    0.00    0.08    0.00    0.09     0.0     0.0     0.0     0.0     0.0     0.0     0.0     0.0     0.0     0.0      0.      0.      1.      3.      3.      3.      3.      3.      6.      6.     0.0     0.0     0.0     0.0     0.0     0.0     0.0     0.0     0.0     0.0     0.0     0.0     0.0     0.0     0.0     0.0     0.0     0.0     0.0     0.0     0.0     0.0     0.0     0.0     0.0     0.0     0.0     0.0     0.0     0.0
   16 327    30    0.00    0.00    0.00    0.00    10.0   0.000   0.010   0.000   0.024     0.1     0.0     0.2     0.5      84    0.05    0.08    0.47    0.15     0.0     0.0     0.0     0.0     0.0     0.0     0.0     0.0     0.5     0.0      0.      0.      2.      3.      3.      3.      3.      3.      6.      6.     0.0     0.0     0.0     0.0     0.0     0.0     0.0     0.0     0.1     0.0     0.0     0.0     0.0     0.0     0.0     0.0     0.0     0.0     0.5     0.0     0.0     0.0     0.0     0.0     0.0     0.0     0.0     0.0     0.1     0.0
   16 328    31    0.00    0.00    0.01    0.00    10.1   0.000   0.010   0.002   0.024     0.1     0.0     0.3     1.9      85    0.20    0.08    1.73    0.34     0.0     0.0     0.0     0.0     0.3     0.4     0.2     0.3     0.5     0.4      0.      0.      2.      3.      3.      3.      3.      3.      6.      7.     0.0     0.0     0.0     0.0     0.0     0.0     0.0     0.0     0.1     0.0     0.0     0.0     0.0     0.0     0.2     0.3     0.2     0.3     0.4     0.3     0.0     0.0     0.0     0.0     0.0     0.1     0.0     0.0     0.1     0.0
   16 329    32    0.00    0.00    0.01    0.00    10.1   0.000   0.010   0.004   0.025     0.1     0.0     0.3     2.2      83    0.21    0.08    2.02    0.38     0.0     0.1     0.2     0.3     0.2     0.3     0.1     0.2     0.4     0.3      0.      0.      1.      2.      3.      2.      3.      3.      6.      6.     0.0     0.0     0.0     0.0     0.0     0.0     0.0     0.0     0.0     0.0     0.0     0.1     0.2     0.2     0.1     0.2     0.1     0.2     0.3     0.3     0.0     0.0     0.0     0.0     0.0     0.0     0.0     0.0     0.0     0.0
   16 330    33    0.00    0.00    0.01    0.01    10.2   0.001   0.010   0.006   0.025     0.1     0.0     0.3     1.9      84    0.18    0.08    1.74    0.34     0.0     0.0     0.2     0.2     0.1     0.2     0.1     0.2     0.3     0.3      0.      0.      1.      2.      3.      2.      3.      3.      6.      7.     0.0     0.0     0.0     0.0     0.0     0.0     0.0     0.0     0.0     0.0     0.0     0.0     0.2     0.2     0.1     0.2     0.1     0.2     0.3     0.3     0.0     0.0     0.0     0.0     0.0     0.0     0.0     0.0     0.0     0.0
   16 331    34    0.00    0.00    0.01    0.01    10.3   0.001   0.010   0.007   0.025     0.1     0.0     0.3     1.6      86    0.15    0.09    1.43    0.30     0.0     0.0     0.2     0.2     0.1     0.2     0.1     0.2     0.3     0.3      0.      0.      1.      2.      2.      2.      3.      3.      6.      7.     0.0     0.0     0.0     0.0     0.0     0.0     0.0     0.0     0.0     0.0     0.0     0.0     0.1     0.2     0.1     0.2     0.0     0.2     0.2     0.2     0.0     0.0     0.0     0.0     0.0     0.0     0.0     0.0     0.0     0.0
   16 332    35    0.00    0.00    0.01    0.01    10.4   0.001   0.010   0.009   0.026     0.1     0.0     0.3     1.4      85    0.13    0.08    1.26    0.28     0.0     0.0     0.1     0.1     0.1     0.2     0.0     0.2     0.3     0.2      0.      0.      1.      2.      2.      2.      2.      3.      6.      7.     0.0     0.0     0.0     0.0     0.0     0.0     0.0     0.0     0.0     0.0     0.0     0.0     0.1     0.1     0.0     0.2     0.0     0.1     0.2     0.2     0.0     0.0     0.0     0.0     0.0     0.0     0.0     0.0     0.0     0.0
   16 333    36    0.00    0.00    0.01    0.01    10.5   0.001   0.010   0.009   0.026     0.1     0.0     0.3     0.9      82    0.09    0.08    0.84    0.21     0.0     0.0     0.1     0.1     0.0     0.1     0.0     0.1     0.2     0.2      0.      0.      1.      2.      2.      2.      3.      3.      5.      7.     0.0     0.0     0.0     0.0     0.0     0.0     0.0     0.0     0.0     0.0     0.0     0.0     0.1     0.1     0.0     0.1     0.0     0.1     0.2     0.2     0.0     0.0     0.0     0.0     0.0     0.0     0.0     0.0     0.0     0.0
   16 334    37    0.00    0.00    0.01    0.01    10.5   0.001   0.011   0.010   0.026     0.1     0.0     0.3     0.5      75    0.05    0.08    0.46    0.14     0.0     0.0     0.0     0.0     0.0     0.0     0.0     0.1     0.1     0.1      0.      0.      1.      1.      2.      2.      2.      2.      5.      6.     0.0     0.0     0.0     0.0     0.0     0.0     0.0     0.0     0.0     0.0     0.0     0.0     0.0     0.0     0.0     0.0     0.0     0.1     0.1     0.1     0.0     0.0     0.0     0.0     0.0     0.0     0.0     0.0     0.0     0.0
   16 335    38    0.00    0.00    0.01    0.01    10.6   0.001   0.011   0.010   0.026     0.1     0.1     0.3     0.1      67    0.01    0.07    0.09    0.08     0.0     0.0     0.0     0.0     0.0     0.0     0.0     0.0     0.0     0.0      0.      0.      1.      1.      2.      1.      2.      2.      4.      5.     0.0     0.0     0.0     0.0     0.0     0.0     0.0     0.0     0.0     0.0     0.0     0.0     0.0     0.0     0.0     0.0     0.0     0.0     0.0     0.0     0.0     0.0     0.0     0.0     0.0     0.0     0.0     0.0     0.0     0.0
   16 336    39    0.00    0.00    0.01    0.01    10.7   0.001   0.011   0.010   0.026     0.1     0.1     0.3     0.0      58    0.00    0.06    0.00    0.06     0.0     0.0     0.0     0.0     0.0     0.0     0.0     0.0     0.0     0.0      0.      0.      1.      1.      1.      1.      2.      2.      3.      4.     0.0     0.0     0.0     0.0     0.0     0.0     0.0     0.0     0.0     0.0     0.0     0.0     0.0     0.0     0.0     0.0     0.0     0.0     0.0     0.0     0.0     0.0     0.0     0.0     0.0     0.0     0.0     0.0     0.0     0.0
   16 337    40    0.00    0.00    0.01    0.01    10.7   0.001   0.011   0.010   0.026     0.1     0.1     0.3     0.0      51    0.00    0.05    0.00    0.06     0.0     0.0     0.0     0.0     0.0     0.0     0.0     0.0     0.0     0.0      0.      0.      1.      1.      1.      1.      1.      1.      3.      4.     0.0     0.0     0.0     0.0     0.0     0.0     0.0     0.0     0.0     0.0     0.0     0.0     0.0     0.0     0.0     0.0     0.0     0.0     0.0     0.0     0.0     0.0     0.0     0.0     0.0     0.0     0.0     0.0     0.0     0.0
   16 338    41    0.00    0.00    0.01    0.01    10.8   0.001   0.011   0.010   0.026     0.1     0.1     0.3     0.0      48    0.00    0.05    0.00    0.05     0.0     0.0     0.0     0.0     0.0     0.0     0.0     0.0     0.0     0.0      0.      0.      1.      1.      1.      1.      1.      2.      3.      4.     0.0     0.0     0.0     0.0     0.0     0.0     0.0     0.0     0.0     0.0     0.0     0.0     0.0     0.0     0.0     0.0     0.0     0.0     0.0     0.0     0.0     0.0     0.0     0.0     0.0     0.0     0.0     0.0     0.0     0.0
   16 339    42    0.00    0.00    0.01    0.01    10.8   0.001   0.011   0.010   0.026     0.1     0.1     0.3     0.0      45    0.00    0.04    0.00    0.05     0.0     0.0     0.0     0.0     0.0     0.0     0.0     0.0     0.0     0.0      0.      0.      0.      1.      1.      1.      1.      2.      3.      4.     0.0     0.0     0.0     0.0     0.0     0.0     0.0     0.0     0.0     0.0     0.0     0.0     0.0     0.0     0.0     0.0     0.0     0.0     0.0     0.0     0.0     0.0     0.0     0.0     0.0     0.0     0.0     0.0     0.0     0.0
   16 340    43    0.00    0.00    0.01    0.01    10.9   0.001   0.011   0.010   0.026     0.1     0.1     0.3     0.0      42    0.00    0.04    0.00    0.05     0.0     0.0     0.0     0.0     0.0     0.0     0.0     0.0     0.0     0.0      0.      0.      0.      1.      1.      1.      1.      1.      3.      4.     0.0     0.0     0.0     0.0     0.0     0.0     0.0     0.0     0.0     0.0     0.0     0.0     0.0     0.0     0.0     0.0     0.0     0.0     0.0     0.0     0.0     0.0     0.0     0.0     0.0     0.0     0.0     0.0     0.0     0.0
   16 341    44    0.00    0.00    0.01    0.01    10.9   0.001   0.011   0.010   0.026     0.1     0.1     0.3     0.0      38    0.00    0.04    0.00    0.04     0.0     0.0     0.0     0.0     0.0     0.0     0.0     0.0     0.0     0.0      0.      0.      0.      1.      1.      1.      1.      1.      3.      3.     0.0     0.0     0.0     0.0     0.0     0.0     0.0     0.0     0.0     0.0     0.0     0.0     0.0     0.0     0.0     0.0     0.0     0.0     0.0     0.0     0.0     0.0     0.0     0.0     0.0     0.0     0.0     0.0     0.0     0.0
   16 342    45    0.00    0.00    0.01    0.01    10.9   0.001   0.011   0.010   0.026     0.1     0.1     0.3     0.0      34    0.00    0.03    0.00    0.04     0.0     0.0     0.0     0.0     0.0     0.0     0.0     0.0     0.0     0.0      0.      0.      0.      1.      1.      1.      1.      1.      2.      3.     0.0     0.0     0.0     0.0     0.0     0.0     0.0     0.0     0.0     0.0     0.0     0.0     0.0     0.0     0.0     0.0     0.0     0.0     0.0     0.0     0.0     0.0     0.0     0.0     0.0     0.0     0.0     0.0     0.0     0.0
   16 343    46    0.00    0.00    0.01    0.01    11.0   0.001   0.011   0.010   0.026     0.1     0.1     0.3     0.0      30    0.00    0.03    0.00    0.03     0.0     0.0     0.0     0.0     0.0     0.0     0.0     0.0     0.0     0.0      0.      0.      0.      1.      1.      1.      1.      1.      2.      3.     0.0     0.0     0.0     0.0     0.0     0.0     0.0     0.0     0.0     0.0     0.0     0.0     0.0     0.0     0.0     0.0     0.0     0.0     0.0     0.0     0.0     0.0     0.0     0.0     0.0     0.0     0.0     0.0     0.0     0.0
   16 344    47    0.00    0.00    0.01    0.01    11.0   0.001   0.011   0.010   0.027     0.1     0.1     0.3     0.0      28    0.00    0.03    0.00    0.03     0.0     0.0     0.0     0.0     0.0     0.0     0.0     0.0     0.0     0.0      0.      0.      0.      1.      1.      1.      1.      1.      2.      2.     0.0     0.0     0.0     0.0     0.0     0.0     0.0     0.0     0.0     0.0     0.0     0.0     0.0     0.0     0.0     0.0     0.0     0.0     0.0     0.0     0.0     0.0     0.0     0.0     0.0     0.0     0.0     0.0     0.0     0.0
   16 345    48    0.00    0.00    0.01    0.01    11.0   0.001   0.011   0.010   0.027     0.1     0.1     0.3     0.0      27    0.00    0.03    0.00    0.03     0.0     0.0     0.0     0.0     0.0     0.0     0.0     0.0     0.0     0.0      0.      0.      0.      1.      1.      1.      1.      1.      2.      2.     0.0     0.0     0.0     0.0     0.0     0.0     0.0     0.0     0.0     0.0     0.0     0.0     0.0     0.0     0.0     0.0     0.0     0.0     0.0     0.0     0.0     0.0     0.0     0.0     0.0     0.0     0.0     0.0     0.0     0.0
   16 346    49    0.00    0.00    0.01    0.01    11.0   0.001   0.011   0.010   0.027     0.1     0.1     0.3     0.0      26    0.00    0.03    0.00    0.07     0.0     0.0     0.0     0.0     0.0     0.0     0.0     0.0     0.0     0.0      0.      0.      0.      1.      1.      1.      1.      1.      2.      2.     0.0     0.0     0.0     0.0     0.0     0.0     0.0     0.0     0.0     0.0     0.0     0.0     0.0     0.0     0.0     0.0     0.0     0.0     0.0     0.0     0.0     0.0     0.0     0.0     0.0     0.0     0.0     0.0     0.0     0.0
   16 347    50    0.00    0.00    0.01    0.01    11.1   0.001   0.011   0.010   0.027     0.1     0.1     0.3     0.0      25    0.00    0.03    0.00    0.05     0.0     0.0     0.0     0.0     0.0     0.0     0.0     0.0     0.0     0.0      0.      0.      0.      1.      1.      1.      1.      1.      2.      2.     0.0     0.0     0.0     0.0     0.0     0.0     0.0     0.0     0.0     0.0     0.0     0.0     0.0     0.0     0.0     0.0     0.0     0.0     0.0     0.0     0.0     0.0     0.0     0.0     0.0     0.0     0.0     0.0     0.0     0.0
   16 348    51    0.00    0.00    0.01    0.01    11.1   0.001   0.011   0.010   0.027     0.1     0.1     0.3     0.0      24    0.00    0.02    0.00    0.03     0.0     0.0     0.0     0.0     0.0     0.0     0.0     0.0     0.0     0.0      0.      0.      0.      1.      1.      1.      1.      1.      2.      2.     0.0     0.0     0.0     0.0     0.0     0.0     0.0     0.0     0.0     0.0     0.0     0.0     0.0     0.0     0.0     0.0     0.0     0.0     0.0     0.0     0.0     0.0     0.0     0.0     0.0     0.0     0.0     0.0     0.0     0.0
   16 349    52    0.00    0.00    0.01    0.01    11.1   0.001   0.011   0.010   0.027     0.1     0.1     0.3     0.0      24    0.00    0.02    0.00    0.03     0.0     0.0     0.0     0.0     0.0     0.0     0.0     0.0     0.0     0.0      0.      0.      0.      1.      1.      1.      1.      1.      2.      2.     0.0     0.0     0.0     0.0     0.0     0.0     0.0     0.0     0.0     0.0     0.0     0.0     0.0     0.0     0.0     0.0     0.0     0.0     0.0     0.0     0.0     0.0     0.0     0.0     0.0     0.0     0.0     0.0     0.0     0.0
   16 350    53    0.00    0.00    0.01    0.01    11.1   0.001   0.011   0.010   0.027     0.1     0.1     0.3     0.0      23    0.00    0.02    0.00    0.03     0.0     0.0     0.0     0.0     0.0     0.0     0.0     0.0     0.0     0.0      0.      0.      0.      1.      1.      1.      1.      1.      2.      2.     0.0     0.0     0.0     0.0     0.0     0.0     0.0     0.0     0.0     0.0     0.0     0.0     0.0     0.0     0.0     0.0     0.0     0.0     0.0     0.0     0.0     0.0     0.0     0.0     0.0     0.0     0.0     0.0     0.0     0.0
   16 351    54    0.00    0.00    0.01    0.01    11.2   0.001   0.011   0.010   0.027     0.1     0.1     0.3     0.0      23    0.00    0.02    0.00    0.03     0.0     0.0     0.0     0.0     0.0     0.0     0.0     0.0     0.0     0.0      0.      0.      0.      1.      1.      1.      1.      1.      2.      2.     0.0     0.0     0.0     0.0     0.0     0.0     0.0     0.0     0.0     0.0     0.0     0.0     0.0     0.0     0.0     0.0     0.0     0.0     0.0     0.0     0.0     0.0     0.0     0.0     0.0     0.0     0.0     0.0     0.0     0.0
   16 352    55    0.00    0.00    0.01    0.01    11.2   0.001   0.011   0.010   0.027     0.1     0.1     0.3     0.0      22    0.00    0.02    0.00    0.02     0.0     0.0     0.0     0.0     0.0     0.0     0.0     0.0     0.0     0.0      0.      0.      0.      0.      1.      1.      1.      1.      1.      2.     0.0     0.0     0.0     0.0     0.0     0.0     0.0     0.0     0.0     0.0     0.0     0.0     0.0     0.0     0.0     0.0     0.0     0.0     0.0     0.0     0.0     0.0     0.0     0.0     0.0     0.0     0.0     0.0     0.0     0.0
   16 353    56    0.00    0.00    0.01    0.01    11.2   0.001   0.011   0.010   0.027     0.1     0.1     0.3     0.0      21    0.00    0.02    0.00    0.02     0.0     0.0     0.0     0.0     0.0     0.0     0.0     0.0     0.0     0.0      0.      0.      0.      0.      1.      0.      1.      1.      1.      1.     0.0     0.0     0.0     0.0     0.0     0.0     0.0     0.0     0.0     0.0     0.0     0.0     0.0     0.0     0.0     0.0     0.0     0.0     0.0     0.0     0.0     0.0     0.0     0.0     0.0     0.0     0.0     0.0     0.0     0.0
   16 354    57    0.00    0.00    0.01    0.01    11.2   0.001   0.011   0.010   0.027     0.1     0.1     0.3     0.0      19    0.00    0.02    0.00    0.02     0.0     0.0     0.0     0.0     0.0     0.0     0.0     0.0     0.0     0.0      0.      0.      0.      0.      0.      0.      0.      1.      1.      1.     0.0     0.0     0.0     0.0     0.0     0.0     0.0     0.0     0.0     0.0     0.0     0.0     0.0     0.0     0.0     0.0     0.0     0.0     0.0     0.0     0.0     0.0     0.0     0.0     0.0     0.0     0.0     0.0     0.0     0.0
   16 355    58    0.00    0.00    0.01    0.01    11.2   0.001   0.011   0.010   0.027     0.1     0.1     0.3     0.0      18    0.00    0.02    0.00    0.02     0.0     0.0     0.0     0.0     0.0     0.0     0.0     0.0     0.0     0.0      0.      0.      0.      0.      0.      0.      0.      1.      1.      1.     0.0     0.0     0.0     0.0     0.0     0.0     0.0     0.0     0.0     0.0     0.0     0.0     0.0     0.0     0.0     0.0     0.0     0.0     0.0     0.0     0.0     0.0     0.0     0.0     0.0     0.0     0.0     0.0     0.0     0.0
   16 356    59    0.00    0.00    0.01    0.01    11.3   0.001   0.011   0.010   0.027     0.1     0.1     0.3     0.0      16    0.00    0.02    0.00    0.02     0.0     0.0     0.0     0.0     0.0     0.0     0.0     0.0     0.0     0.0      0.      0.      0.      0.      0.      0.      0.      0.      1.      1.     0.0     0.0     0.0     0.0     0.0     0.0     0.0     0.0     0.0     0.0     0.0     0.0     0.0     0.0     0.0     0.0     0.0     0.0     0.0     0.0     0.0     0.0     0.0     0.0     0.0     0.0     0.0     0.0     0.0     0.0
   16 357    60    0.00    0.00    0.01    0.01    11.3   0.001   0.011   0.010   0.027     0.1     0.1     0.3     0.0      15    0.00    0.01    0.00    0.02     0.0     0.0     0.0     0.0     0.0     0.0     0.0     0.0     0.0     0.0      0.      0.      0.      0.      0.      0.      0.      0.      1.      1.     0.0     0.0     0.0     0.0     0.0     0.0     0.0     0.0     0.0     0.0     0.0     0.0     0.0     0.0     0.0     0.0     0.0     0.0     0.0     0.0     0.0     0.0     0.0     0.0     0.0     0.0     0.0     0.0     0.0     0.0
   16 358    61    0.00    0.00    0.01    0.01    11.3   0.001   0.011   0.010   0.027     0.1     0.1     0.3     0.0      13    0.00    0.01    0.00    0.01     0.0     0.0     0.0     0.0     0.0     0.0     0.0     0.0     0.0     0.0      0.      0.      0.      0.      0.      0.      0.      0.      1.      1.     0.0     0.0     0.0     0.0     0.0     0.0     0.0     0.0     0.0     0.0     0.0     0.0     0.0     0.0     0.0     0.0     0.0     0.0     0.0     0.0     0.0     0.0     0.0     0.0     0.0     0.0     0.0     0.0     0.0     0.0
   16 359    62    0.00    0.00    0.01    0.01    11.3   0.001   0.011   0.010   0.027     0.1     0.2     0.3     0.0      12    0.00    0.01    0.00    0.01     0.0     0.0     0.0     0.0     0.0     0.0     0.0     0.0     0.0     0.0      0.      0.      0.      0.      0.      0.      0.      0.      1.      1.     0.0     0.0     0.0     0.0     0.0     0.0     0.0     0.0     0.0     0.0     0.0     0.0     0.0     0.0     0.0     0.0     0.0     0.0     0.0     0.0     0.0     0.0     0.0     0.0     0.0     0.0     0.0     0.0     0.0     0.0
   16 360    63    0.00    0.00    0.01    0.01    11.3   0.001   0.011   0.010   0.027     0.1     0.2     0.3     0.0      12    0.00    0.01    0.00    0.01     0.0     0.0     0.0     0.0     0.0     0.0     0.0     0.0     0.0     0.0      0.      0.      0.      0.      0.      0.      0.      0.      1.      1.     0.0     0.0     0.0     0.0     0.0     0.0     0.0     0.0     0.0     0.0     0.0     0.0     0.0     0.0     0.0     0.0     0.0     0.0     0.0     0.0     0.0     0.0     0.0     0.0     0.0     0.0     0.0     0.0     0.0     0.0
   16 361    64    0.00    0.00    0.01    0.01    11.3   0.001   0.011   0.010   0.027     0.1     0.2     0.3     0.0      12    0.00    0.01    0.00    0.03     0.0     0.0     0.0     0.0     0.0     0.0     0.0     0.0     0.0     0.0      0.      0.      0.      0.      0.      0.      0.      0.      1.      1.     0.0     0.0     0.0     0.0     0.0     0.0     0.0     0.0     0.0     0.0     0.0     0.0     0.0     0.0     0.0     0.0     0.0     0.0     0.0     0.0     0.0     0.0     0.0     0.0     0.0     0.0     0.0     0.0     0.0     0.0
   16 362    65    0.00    0.00    0.01    0.01    11.3   0.001   0.011   0.010   0.027     0.1     0.2     0.3     0.0      12    0.00    0.01    0.00    0.02     0.0     0.0     0.0     0.0     0.0     0.0     0.0     0.0     0.0     0.0      0.      0.      0.      0.      0.      0.      0.      0.      1.      1.     0.0     0.0     0.0     0.0     0.0     0.0     0.0     0.0     0.0     0.0     0.0     0.0     0.0     0.0     0.0     0.0     0.0     0.0     0.0     0.0     0.0     0.0     0.0     0.0     0.0     0.0     0.0     0.0     0.0     0.0
   16 363    66    0.00    0.00    0.01    0.01    11.3   0.001   0.011   0.010   0.027     0.1     0.2     0.3     0.0      13    0.00    0.01    0.00    0.02     0.0     0.0     0.0     0.0     0.0     0.0     0.0     0.0     0.0     0.0      0.      0.      0.      0.      0.      0.      0.      0.      1.      1.     0.0     0.0     0.0     0.0     0.0     0.0     0.0     0.0     0.0     0.0     0.0     0.0     0.0     0.0     0.0     0.0     0.0     0.0     0.0     0.0     0.0     0.0     0.0     0.0     0.0     0.0     0.0     0.0     0.0     0.0
   16 364    67    0.00    0.00    0.01    0.01    11.4   0.001   0.011   0.010   0.027     0.1     0.2     0.3     0.0      15    0.00    0.02    0.00    0.02     0.0     0.0     0.0     0.0     0.0     0.0     0.0     0.0     0.0     0.0      0.      0.      0.      0.      0.      0.      0.      0.      1.      1.     0.0     0.0     0.0     0.0     0.0     0.0     0.0     0.0     0.0     0.0     0.0     0.0     0.0     0.0     0.0     0.0     0.0     0.0     0.0     0.0     0.0     0.0     0.0     0.0     0.0     0.0     0.0     0.0     0.0     0.0
   16 365    68    0.01    0.00    0.02    0.01    11.4   0.001   0.011   0.010   0.027     0.1     0.2     0.3     0.0      17    0.00    0.02    0.00    0.02     0.0     0.0     0.0     0.0     0.0     0.0     0.0     0.0     0.0     0.0      0.      0.      0.      0.      0.      0.      0.      0.      1.      1.     0.0     0.0     0.0     0.0     0.0     0.0     0.0     0.0     0.0     0.0     0.0     0.0     0.0     0.0     0.0     0.0     0.0     0.0     0.0     0.0     0.0     0.0     0.0     0.0     0.0     0.0     0.0     0.0     0.0     0.0
   16 366    69    0.01    0.00    0.02    0.01    11.4   0.001   0.011   0.010   0.027     0.1     0.2     0.3     0.0      16    0.00    0.02    0.00    0.02     0.0     0.0     0.0     0.0     0.0     0.0     0.0     0.0     0.0     0.0      0.      0.      0.      0.      0.      0.      0.      0.      0.      1.     0.0     0.0     0.0     0.0     0.0     0.0     0.0     0.0     0.0     0.0     0.0     0.0     0.0     0.0     0.0     0.0     0.0     0.0     0.0     0.0     0.0     0.0     0.0     0.0     0.0     0.0     0.0     0.0     0.0     0.0
   17 001    70    0.01    0.00    0.02    0.01    11.4   0.001   0.011   0.010   0.027     0.1     0.2     0.3     0.0      14    0.00    0.01    0.00    0.01     0.0     0.0     0.0     0.0     0.0     0.0     0.0     0.0     0.0     0.0      0.      0.      0.      0.      0.      0.      0.      0.      0.      1.     0.0     0.0     0.0     0.0     0.0     0.0     0.0     0.0     0.0     0.0     0.0     0.0     0.0     0.0     0.0     0.0     0.0     0.0     0.0     0.0     0.0     0.0     0.0     0.0     0.0     0.0     0.0     0.0     0.0     0.0
   17 002    71    0.01    0.00    0.02    0.01    11.4   0.001   0.011   0.010   0.027     0.1     0.2     0.3     0.0      12    0.00    0.01    0.00    0.00     0.0     0.0     0.0     0.0     0.0     0.0     0.0     0.0     0.0     0.0      0.      0.      0.      0.      0.      0.      0.      0.      0.      1.     0.0     0.0     0.0     0.0     0.0     0.0     0.0     0.0     0.0     0.0     0.0     0.0     0.0     0.0     0.0     0.0     0.0     0.0     0.0     0.0     0.0     0.0     0.0     0.0     0.0     0.0     0.0     0.0     0.0     0.0
   17 003    72    0.01    0.00    0.02    0.01    11.4   0.001   0.011   0.010   0.027     0.1     0.2     0.3     0.0      10    0.00    0.01    0.00    0.01     0.0     0.0     0.0     0.0     0.0     0.0     0.0     0.0     0.0     0.0      0.      0.      0.      0.      0.      0.      0.      0.      0.      0.     0.0     0.0     0.0     0.0     0.0     0.0     0.0     0.0     0.0     0.0     0.0     0.0     0.0     0.0     0.0     0.0     0.0     0.0     0.0     0.0     0.0     0.0     0.0     0.0     0.0     0.0     0.0     0.0     0.0     0.0
   17 004    73    0.01    0.00    0.02    0.01    11.4   0.001   0.011   0.010   0.027     0.1     0.2     0.3     0.0       9    0.00    0.01    0.00    0.01     0.0     0.0     0.0     0.0     0.0     0.0     0.0     0.0     0.0     0.0      0.      0.      0.      0.      0.      0.      0.      0.      0.      0.     0.0     0.0     0.0     0.0     0.0     0.0     0.0     0.0     0.0     0.0     0.0     0.0     0.0     0.0     0.0     0.0     0.0     0.0     0.0     0.0     0.0     0.0     0.0     0.0     0.0     0.0     0.0     0.0     0.0     0.0
   17 005    74    0.01    0.00    0.02    0.01    11.4   0.001   0.011   0.010   0.027     0.1     0.2     0.3     0.0       9    0.00    0.01    0.00    0.01     0.0     0.0     0.0     0.0     0.0     0.0     0.0     0.0     0.0     0.0      0.      0.      0.      0.      0.      0.      0.      0.      0.      0.     0.0     0.0     0.0     0.0     0.0     0.0     0.0     0.0     0.0     0.0     0.0     0.0     0.0     0.0     0.0     0.0     0.0     0.0     0.0     0.0     0.0     0.0     0.0     0.0     0.0     0.0     0.0     0.0     0.0     0.0
   17 006    75    0.01    0.01    0.02    0.01    11.5   0.001   0.011   0.010   0.027     0.1     0.2     0.3     0.0       8    0.00    0.01    0.00    0.00     0.0     0.0     0.0     0.0     0.0     0.0     0.0     0.0     0.0     0.0      0.      0.      0.      0.      0.      0.      0.      0.      0.      0.     0.0     0.0     0.0     0.0     0.0     0.0     0.0     0.0     0.0     0.0     0.0     0.0     0.0     0.0     0.0     0.0     0.0     0.0     0.0     0.0     0.0     0.0     0.0     0.0     0.0     0.0     0.0     0.0     0.0     0.0
   17 007    76    0.01    0.01    0.02    0.01    11.5   0.001   0.011   0.010   0.027     0.1     0.2     0.3     0.0       7    0.00    0.01    0.00    0.00     0.0     0.0     0.0     0.0     0.0     0.0     0.0     0.0     0.0     0.0      0.      0.      0.      0.      0.      0.      0.      0.      0.      0.     0.0     0.0     0.0     0.0     0.0     0.0     0.0     0.0     0.0     0.0     0.0     0.0     0.0     0.0     0.0     0.0     0.0     0.0     0.0     0.0     0.0     0.0     0.0     0.0     0.0     0.0     0.0     0.0     0.0     0.0
   17 008    77    0.01    0.01    0.02    0.01    11.5   0.001   0.011   0.010   0.027     0.1     0.2     0.3     0.0       6    0.00    0.01    0.00    0.01     0.0     0.0     0.0     0.0     0.0     0.0     0.0     0.0     0.0     0.0      0.      0.      0.      0.      0.      0.      0.      0.      0.      0.     0.0     0.0     0.0     0.0     0.0     0.0     0.0     0.0     0.0     0.0     0.0     0.0     0.0     0.0     0.0     0.0     0.0     0.0     0.0     0.0     0.0     0.0     0.0     0.0     0.0     0.0     0.0     0.0     0.0     0.0
   17 009    78    0.01    0.01    0.02    0.01    11.5   0.001   0.011   0.010   0.027     0.1     0.2     0.2     0.0       5    0.00    0.01    0.00    0.01     0.0     0.0     0.0     0.0     0.0     0.0     0.0     0.0     0.0     0.0      0.      0.      0.      0.      0.      0.      0.      0.      0.      0.     0.0     0.0     0.0     0.0     0.0     0.0     0.0     0.0     0.0     0.0     0.0     0.0     0.0     0.0     0.0     0.0     0.0     0.0     0.0     0.0     0.0     0.0     0.0     0.0     0.0     0.0     0.0     0.0     0.0     0.0
   17 010    79    0.01    0.01    0.02    0.01    11.5   0.001   0.011   0.010   0.027     0.1     0.2     0.2     0.0       5    0.00    0.00    0.00    0.01     0.0     0.0     0.0     0.0     0.0     0.0     0.0     0.0     0.0     0.0      0.      0.      0.      0.      0.      0.      0.      0.      0.      0.     0.0     0.0     0.0     0.0     0.0     0.0     0.0     0.0     0.0     0.0     0.0     0.0     0.0     0.0     0.0     0.0     0.0     0.0     0.0     0.0     0.0     0.0     0.0     0.0     0.0     0.0     0.0     0.0     0.0     0.0
   17 011    80    0.01    0.01    0.02    0.01    11.5   0.001   0.011   0.010   0.027     0.1     0.1     0.2     0.0       5    0.00    0.00    0.00    0.00     0.0     0.0     0.0     0.0     0.0     0.0     0.0     0.0     0.0     0.0      0.      0.      0.      0.      0.      0.      0.      0.      0.      0.     0.0     0.0     0.0     0.0     0.0     0.0     0.0     0.0     0.0     0.0     0.0     0.0     0.0     0.0     0.0     0.0     0.0     0.0     0.0     0.0     0.0     0.0     0.0     0.0     0.0     0.0     0.0     0.0     0.0     0.0
   17 012    81    0.01    0.01    0.02    0.01    11.5   0.001   0.011   0.010   0.027     0.1     0.1     0.2     0.0       5    0.00    0.00    0.00    0.01     0.0     0.0     0.0     0.0     0.0     0.0     0.0     0.0     0.0     0.0      0.      0.      0.      0.      0.      0.      0.      0.      0.      0.     0.0     0.0     0.0     0.0     0.0     0.0     0.0     0.0     0.0     0.0     0.0     0.0     0.0     0.0     0.0     0.0     0.0     0.0     0.0     0.0     0.0     0.0     0.0     0.0     0.0     0.0     0.0     0.0     0.0     0.0
   17 013    82    0.01    0.01    0.02    0.01    11.5   0.001   0.011   0.010   0.027     0.0     0.0     0.1     0.0       5    0.00    0.01    0.00    0.01     0.0     0.0     0.0     0.0     0.0     0.0     0.0     0.0     0.0     0.0      0.      0.      0.      0.      0.      0.      0.      0.      0.      0.     0.0     0.0     0.0     0.0     0.0     0.0     0.0     0.0     0.0     0.0     0.0     0.0     0.0     0.0     0.0     0.0     0.0     0.0     0.0     0.0     0.0     0.0     0.0     0.0     0.0     0.0     0.0     0.0     0.0     0.0
   17 014    83    0.01    0.01    0.02    0.01    11.5   0.001   0.011   0.010   0.027     0.1     0.1     0.2     0.0       5    0.00    0.01    0.00    0.01     0.0     0.0     0.0     0.0     0.0     0.0     0.0     0.0     0.0     0.0      0.      0.      0.      0.      0.      0.      0.      0.      0.      0.     0.0     0.0     0.0     0.0     0.0     0.0     0.0     0.0     0.0     0.0     0.0     0.0     0.0     0.0     0.0     0.0     0.0     0.0     0.0     0.0     0.0     0.0     0.0     0.0     0.0     0.0     0.0     0.0     0.0     0.0
   17 015    84    0.01    0.01    0.02    0.01    11.5   0.001   0.012   0.010   0.027     0.1     0.1     0.2     0.0       5    0.00    0.00    0.00    0.00     0.0     0.0     0.0     0.0     0.0     0.0     0.0     0.0     0.0     0.0      0.      0.      0.      0.      0.      0.      0.      0.      0.      0.     0.0     0.0     0.0     0.0     0.0     0.0     0.0     0.0     0.0     0.0     0.0     0.0     0.0     0.0     0.0     0.0     0.0     0.0     0.0     0.0     0.0     0.0     0.0     0.0     0.0     0.0     0.0     0.0     0.0     0.0
   17 016    85    0.01    0.01    0.02    0.01    11.5   0.001   0.012   0.010   0.027     0.1     0.1     0.2     0.0       4    0.00    0.00    0.00    0.00     0.0     0.0     0.0     0.0     0.0     0.0     0.0     0.0     0.0     0.0      0.      0.      0.      0.      0.      0.      0.      0.      0.      0.     0.0     0.0     0.0     0.0     0.0     0.0     0.0     0.0     0.0     0.0     0.0     0.0     0.0     0.0     0.0     0.0     0.0     0.0     0.0     0.0     0.0     0.0     0.0     0.0     0.0     0.0     0.0     0.0     0.0     0.0
   17 017    86    0.01    0.01    0.02    0.01    11.5   0.001   0.012   0.010   0.027     0.1     0.1     0.2     0.0       4    0.00    0.00    0.00    0.00     0.0     0.0     0.0     0.0     0.0     0.0     0.0     0.0     0.0     0.0      0.      0.      0.      0.      0.      0.      0.      0.      0.      0.     0.0     0.0     0.0     0.0     0.0     0.0     0.0     0.0     0.0     0.0     0.0     0.0     0.0     0.0     0.0     0.0     0.0     0.0     0.0     0.0     0.0     0.0     0.0     0.0     0.0     0.0     0.0     0.0     0.0     0.0
   17 018    87    0.01    0.01    0.02    0.01    11.5   0.001   0.012   0.010   0.027     0.1     0.1     0.2     0.0       3    0.00    0.00    0.00    0.00     0.0     0.0     0.0     0.0     0.0     0.0     0.0     0.0     0.0     0.0      0.      0.      0.      0.      0.      0.      0.      0.      0.      0.     0.0     0.0     0.0     0.0     0.0     0.0     0.0     0.0     0.0     0.0     0.0     0.0     0.0     0.0     0.0     0.0     0.0     0.0     0.0     0.0     0.0     0.0     0.0     0.0     0.0     0.0     0.0     0.0     0.0     0.0
   17 019    88    0.01    0.01    0.02    0.01    11.5   0.001   0.012   0.010   0.027     0.1     0.1     0.2     0.0       3    0.00    0.00    0.00    0.00     0.0     0.0     0.0     0.0     0.0     0.0     0.0     0.0     0.0     0.0      0.      0.      0.      0.      0.      0.      0.      0.      0.      0.     0.0     0.0     0.0     0.0     0.0     0.0     0.0     0.0     0.0     0.0     0.0     0.0     0.0     0.0     0.0     0.0     0.0     0.0     0.0     0.0     0.0     0.0     0.0     0.0     0.0     0.0     0.0     0.0     0.0     0.0
   17 020    89    0.01    0.01    0.02    0.01    11.5   0.001   0.012   0.010   0.027     0.1     0.1     0.2     0.0       3    0.00    0.00    0.00    0.00     0.0     0.0     0.0     0.0     0.0     0.0     0.0     0.0     0.0     0.0      0.      0.      0.      0.      0.      0.      0.      0.      0.      0.     0.0     0.0     0.0     0.0     0.0     0.0     0.0     0.0     0.0     0.0     0.0     0.0     0.0     0.0     0.0     0.0     0.0     0.0     0.0     0.0     0.0     0.0     0.0     0.0     0.0     0.0     0.0     0.0     0.0     0.0
   17 021    90    0.01    0.01    0.02    0.01    11.5   0.001   0.012   0.010   0.027     0.1     0.1     0.2     0.0       2    0.00    0.00    0.00    0.00     0.0     0.0     0.0     0.0     0.0     0.0     0.0     0.0     0.0     0.0      0.      0.      0.      0.      0.      0.      0.      0.      0.      0.     0.0     0.0     0.0     0.0     0.0     0.0     0.0     0.0     0.0     0.0     0.0     0.0     0.0     0.0     0.0     0.0     0.0     0.0     0.0     0.0     0.0     0.0     0.0     0.0     0.0     0.0     0.0     0.0     0.0     0.0
   17 022    91    0.01    0.01    0.02    0.01    11.5   0.001   0.012   0.010   0.027     0.1     0.1     0.2     0.0       2    0.00    0.00    0.00    0.00     0.0     0.0     0.0     0.0     0.0     0.0     0.0     0.0     0.0     0.0      0.      0.      0.      0.      0.      0.      0.      0.      0.      0.     0.0     0.0     0.0     0.0     0.0     0.0     0.0     0.0     0.0     0.0     0.0     0.0     0.0     0.0     0.0     0.0     0.0     0.0     0.0     0.0     0.0     0.0     0.0     0.0     0.0     0.0     0.0     0.0     0.0     0.0
   17 023    92    0.01    0.01    0.02    0.01    11.5   0.001   0.012   0.010   0.027     0.1     0.1     0.2     0.0       2    0.00    0.00    0.00    0.00     0.0     0.0     0.0     0.0     0.0     0.0     0.0     0.0     0.0     0.0      0.      0.      0.      0.      0.      0.      0.      0.      0.      0.     0.0     0.0     0.0     0.0     0.0     0.0     0.0     0.0     0.0     0.0     0.0     0.0     0.0     0.0     0.0     0.0     0.0     0.0     0.0     0.0     0.0     0.0     0.0     0.0     0.0     0.0     0.0     0.0     0.0     0.0
   17 024    93    0.01    0.01    0.02    0.01    11.5   0.001   0.012   0.010   0.027     0.1     0.1     0.2     0.0       2    0.00    0.00    0.00    0.00     0.0     0.0     0.0     0.0     0.0     0.0     0.0     0.0     0.0     0.0      0.      0.      0.      0.      0.      0.      0.      0.      0.      0.     0.0     0.0     0.0     0.0     0.0     0.0     0.0     0.0     0.0     0.0     0.0     0.0     0.0     0.0     0.0     0.0     0.0     0.0     0.0     0.0     0.0     0.0     0.0     0.0     0.0     0.0     0.0     0.0     0.0     0.0
   17 025    94    0.01    0.01    0.02    0.01    11.5   0.001   0.012   0.010   0.027     0.1     0.1     0.2     0.0       1    0.00    0.00    0.00    0.00     0.0     0.0     0.0     0.0     0.0     0.0     0.0     0.0     0.0     0.0      0.      0.      0.      0.      0.      0.      0.      0.      0.      0.     0.0     0.0     0.0     0.0     0.0     0.0     0.0     0.0     0.0     0.0     0.0     0.0     0.0     0.0     0.0     0.0     0.0     0.0     0.0     0.0     0.0     0.0     0.0     0.0     0.0     0.0     0.0     0.0     0.0     0.0
   17 026    95    0.01    0.01    0.02    0.01    11.5   0.001   0.012   0.010   0.027     0.1     0.1     0.2     0.0       1    0.00    0.00    0.00    0.00     0.0     0.0     0.0     0.0     0.0     0.0     0.0     0.0     0.0     0.0      0.      0.      0.      0.      0.      0.      0.      0.      0.      0.     0.0     0.0     0.0     0.0     0.0     0.0     0.0     0.0     0.0     0.0     0.0     0.0     0.0     0.0     0.0     0.0     0.0     0.0     0.0     0.0     0.0     0.0     0.0     0.0     0.0     0.0     0.0     0.0     0.0     0.0
   17 027    96    0.01    0.01    0.02    0.01    11.5   0.001   0.012   0.010   0.027     0.1     0.1     0.2     0.0       1    0.00    0.00    0.00    0.00     0.0     0.0     0.0     0.0     0.0     0.0     0.0     0.0     0.0     0.0      0.      0.      0.      0.      0.      0.      0.      0.      0.      0.     0.0     0.0     0.0     0.0     0.0     0.0     0.0     0.0     0.0     0.0     0.0     0.0     0.0     0.0     0.0     0.0     0.0     0.0     0.0     0.0     0.0     0.0     0.0     0.0     0.0     0.0     0.0     0.0     0.0     0.0
   17 028    97    0.01    0.01    0.02    0.01    11.5   0.001   0.012   0.010   0.027     0.1     0.1     0.2     0.0       1    0.00    0.00    0.00    0.00     0.0     0.0     0.0     0.0     0.0     0.0     0.0     0.0     0.0     0.0      0.      0.      0.      0.      0.      0.      0.      0.      0.      0.     0.0     0.0     0.0     0.0     0.0     0.0     0.0     0.0     0.0     0.0     0.0     0.0     0.0     0.0     0.0     0.0     0.0     0.0     0.0     0.0     0.0     0.0     0.0     0.0     0.0     0.0     0.0     0.0     0.0     0.0
   17 029    98    0.01    0.01    0.02    0.01    11.5   0.001   0.012   0.010   0.027     0.1     0.1     0.2     0.0       1    0.00    0.00    0.00    0.00     0.0     0.0     0.0     0.0     0.0     0.0     0.0     0.0     0.0     0.0      0.      0.      0.      0.      0.      0.      0.      0.      0.      0.     0.0     0.0     0.0     0.0     0.0     0.0     0.0     0.0     0.0     0.0     0.0     0.0     0.0     0.0     0.0     0.0     0.0     0.0     0.0     0.0     0.0     0.0     0.0     0.0     0.0     0.0     0.0     0.0     0.0     0.0
   17 030    99    0.01    0.01    0.02    0.01    11.5   0.001   0.012   0.010   0.027     0.1     0.1     0.2     0.0       1    0.00    0.00    0.00    0.00     0.0     0.0     0.0     0.0     0.0     0.0     0.0     0.0     0.0     0.0      0.      0.      0.      0.      0.      0.      0.      0.      0.      0.     0.0     0.0     0.0     0.0     0.0     0.0     0.0     0.0     0.0     0.0     0.0     0.0     0.0     0.0     0.0     0.0     0.0     0.0     0.0     0.0     0.0     0.0     0.0     0.0     0.0     0.0     0.0     0.0     0.0     0.0
   17 031   100    0.01    0.01    0.02    0.01    11.5   0.001   0.012   0.010   0.027     0.1     0.1     0.2     0.0       1    0.00    0.00    0.00    0.00     0.0     0.0     0.0     0.0     0.0     0.0     0.0     0.0     0.0     0.0      0.      0.      0.      0.      0.      0.      0.      0.      0.      0.     0.0     0.0     0.0     0.0     0.0     0.0     0.0     0.0     0.0     0.0     0.0     0.0     0.0     0.0     0.0     0.0     0.0     0.0     0.0     0.0     0.0     0.0     0.0     0.0     0.0     0.0     0.0     0.0     0.0     0.0
   17 032   101    0.01    0.01    0.02    0.01    11.5   0.001   0.012   0.010   0.027     0.1     0.0     0.1     0.0       1    0.00    0.00    0.00    0.00     0.0     0.0     0.0     0.0     0.0     0.0     0.0     0.0     0.0     0.0      0.      0.      0.      0.      0.      0.      0.      0.      0.      0.     0.0     0.0     0.0     0.0     0.0     0.0     0.0     0.0     0.0     0.0     0.0     0.0     0.0     0.0     0.0     0.0     0.0     0.0     0.0     0.0     0.0     0.0     0.0     0.0     0.0     0.0     0.0     0.0     0.0     0.0
   17 033   102    0.01    0.01    0.02    0.01    11.5   0.001   0.012   0.010   0.027     0.1     0.1     0.1     0.0       1    0.00    0.00    0.00    0.00     0.0     0.0     0.0     0.0     0.0     0.0     0.0     0.0     0.0     0.0      0.      0.      0.      0.      0.      0.      0.      0.      0.      0.     0.0     0.0     0.0     0.0     0.0     0.0     0.0     0.0     0.0     0.0     0.0     0.0     0.0     0.0     0.0     0.0     0.0     0.0     0.0     0.0     0.0     0.0     0.0     0.0     0.0     0.0     0.0     0.0     0.0     0.0
   17 034   103    0.01    0.01    0.02    0.01    11.5   0.001   0.012   0.010   0.027     0.1     0.1     0.2     0.0       1    0.00    0.00    0.00    0.00     0.0     0.0     0.0     0.0     0.0     0.0     0.0     0.0     0.0     0.0      0.      0.      0.      0.      0.      0.      0.      0.      0.      0.     0.0     0.0     0.0     0.0     0.0     0.0     0.0     0.0     0.0     0.0     0.0     0.0     0.0     0.0     0.0     0.0     0.0     0.0     0.0     0.0     0.0     0.0     0.0     0.0     0.0     0.0     0.0     0.0     0.0     0.0
   17 035   104    0.01    0.01    0.02    0.01    11.5   0.001   0.012   0.010   0.027     0.1     0.1     0.2     0.0       1    0.00    0.00    0.00    0.00     0.0     0.0     0.0     0.0     0.0     0.0     0.0     0.0     0.0     0.0      0.      0.      0.      0.      0.      0.      0.      0.      0.      0.     0.0     0.0     0.0     0.0     0.0     0.0     0.0     0.0     0.0     0.0     0.0     0.0     0.0     0.0     0.0     0.0     0.0     0.0     0.0     0.0     0.0     0.0     0.0     0.0     0.0     0.0     0.0     0.0     0.0     0.0
   17 036   105    0.01    0.01    0.02    0.01    12.2   0.001   0.012   0.010   0.030     0.2     0.1     0.7     0.0     675    0.00    0.67    0.00    2.83     0.0     0.0     0.0     0.0     0.0     0.0     0.0     0.0     0.0     0.0    673.      0.      0.      0.      0.      0.      0.      0.      0.      0.     0.7     0.0     0.0     0.0     0.0     0.0     0.0     0.0     0.0     0.0     0.0     0.0     0.0     0.0     0.0     0.0     0.0     0.0     0.0     0.0     2.8     0.0     0.0     0.0     0.0     0.0     0.0     0.0     0.0     0.0
   17 037   106    0.01    0.01    0.02    0.01    13.4   0.001   0.013   0.010   0.035     0.4     0.1     1.5     0.0    1135    0.00    1.13    0.00    4.76     0.0     0.0     0.0     0.0     0.0     0.0     0.0     0.0     0.0     0.0   1133.      0.      0.      0.      0.      0.      0.      0.      0.      0.     1.1     0.0     0.0     0.0     0.0     0.0     0.0     0.0     0.0     0.0     0.0     0.0     0.0     0.0     0.0     0.0     0.0     0.0     0.0     0.0     4.8     0.0     0.0     0.0     0.0     0.0     0.0     0.0     0.0     0.0
   17 038   107    0.01    0.01    0.03    0.01    14.7   0.001   0.015   0.010   0.041     0.6     0.1     2.3     0.0    1380    0.00    1.38    0.00    5.79     0.0     0.0     0.0     0.0     0.0     0.0     0.0     0.0     0.0     0.0   1379.      0.      0.      0.      0.      0.      0.      0.      0.      0.     1.4     0.0     0.0     0.0     0.0     0.0     0.0     0.0     0.0     0.0     0.0     0.0     0.0     0.0     0.0     0.0     0.0     0.0     0.0     0.0     5.8     0.0     0.0     0.0     0.0     0.0     0.0     0.0     0.0     0.0
   17 039   108    0.01    0.01    0.03    0.01    16.3   0.001   0.016   0.010   0.047     0.8     0.1     3.1     0.0    1526    0.00    1.53    0.00    6.42     0.0     0.0     0.0     0.0     0.0     0.0     0.0     0.0     0.0     0.0   1525.      0.      0.      0.      0.      0.      0.      0.      0.      0.     1.5     0.0     0.0     0.0     0.0     0.0     0.0     0.0     0.0     0.0     0.0     0.0     0.0     0.0     0.0     0.0     0.0     0.0     0.0     0.0     6.4     0.0     0.0     0.0     0.0     0.0     0.0     0.0     0.0     0.0
   17 040   109    0.01    0.01    0.03    0.01    17.8   0.001   0.018   0.010   0.054     1.0     0.1     3.8     0.0    1563    0.00    1.56    0.00    6.59     0.0     0.0     0.0     0.0     0.0     0.0     0.0     0.0     0.0     0.0   1562.      0.      0.      0.      0.      0.      0.      0.      0.      0.     1.6     0.0     0.0     0.0     0.0     0.0     0.0     0.0     0.0     0.0     0.0     0.0     0.0     0.0     0.0     0.0     0.0     0.0     0.0     0.0     6.6     0.0     0.0     0.0     0.0     0.0     0.0     0.0     0.0     0.0
   17 041   110    0.01    0.01    0.04    0.01    19.3   0.001   0.019   0.010   0.060     1.1     0.1     4.3     0.0    1490    0.00    1.49    0.00    6.29     0.0     0.0     0.0     0.0     0.0     0.0     0.0     0.0     0.0     0.0   1488.      0.      0.      0.      0.      0.      0.      0.      0.      0.     1.5     0.0     0.0     0.0     0.0     0.0     0.0     0.0     0.0     0.0     0.0     0.0     0.0     0.0     0.0     0.0     0.0     0.0     0.0     0.0     6.3     0.0     0.0     0.0     0.0     0.0     0.0     0.0     0.0     0.0
   17 042   111    0.01    0.01    0.04    0.01    20.7   0.001   0.021   0.010   0.066     1.1     0.1     4.6     0.0    1347    0.00    1.35    0.00    5.69     0.0     0.0     0.0     0.0     0.0     0.0     0.0     0.0     0.0     0.0   1346.      0.      0.      0.      0.      0.      0.      0.      0.      0.     1.3     0.0     0.0     0.0     0.0     0.0     0.0     0.0     0.0     0.0     0.0     0.0     0.0     0.0     0.0     0.0     0.0     0.0     0.0     0.0     5.7     0.0     0.0     0.0     0.0     0.0     0.0     0.0     0.0     0.0
   17 043   112    0.02    0.01    0.05    0.01    21.9   0.001   0.022   0.010   0.071     1.2     0.1     4.8     0.0    1265    0.00    1.27    0.00    5.41     0.0     0.0     0.0     0.0     0.0     0.0     0.0     0.0     0.0     0.0   1264.      0.      0.      0.      0.      0.      0.      0.      0.      0.     1.3     0.0     0.0     0.0     0.0     0.0     0.0     0.0     0.0     0.0     0.0     0.0     0.0     0.0     0.0     0.0     0.0     0.0     0.0     0.0     5.4     0.0     0.0     0.0     0.0     0.0     0.0     0.0     0.0     0.0
   17 044   113    0.02    0.01    0.05    0.01    23.1   0.001   0.023   0.010   0.076     1.2     0.1     4.9     0.0    1170    0.00    1.17    0.00    5.02     0.0     0.0     0.0     0.0     0.0     0.0     0.0     0.0     0.0     0.0   1169.      0.      0.      0.      0.      0.      0.      0.      0.      0.     1.2     0.0     0.0     0.0     0.0     0.0     0.0     0.0     0.0     0.0     0.0     0.0     0.0     0.0     0.0     0.0     0.0     0.0     0.0     0.0     5.0     0.0     0.0     0.0     0.0     0.0     0.0     0.0     0.0     0.0
   17 045   114    0.02    0.01    0.06    0.01    24.3   0.001   0.024   0.010   0.081     1.2     0.1     4.9     0.0    1164    0.00    1.16    0.00    5.04     0.0     0.0     0.0     0.0     0.0     0.0     0.0     0.0     0.0     0.0   1163.      0.      0.      0.      0.      0.      0.      0.      0.      0.     1.2     0.0     0.0     0.0     0.0     0.0     0.0     0.0     0.0     0.0     0.0     0.0     0.0     0.0     0.0     0.0     0.0     0.0     0.0     0.0     5.0     0.0     0.0     0.0     0.0     0.0     0.0     0.0     0.0     0.0
   17 046   115    0.02    0.01    0.06    0.01    25.4   0.001   0.025   0.010   0.086     1.2     0.0     5.0     0.0    1162    0.00    1.16    0.00    5.18     0.0     0.0     0.0     0.0     0.0     0.0     0.0     0.0     0.0     0.0   1161.      0.      0.      0.      0.      0.      0.      0.      0.      0.     1.2     0.0     0.0     0.0     0.0     0.0     0.0     0.0     0.0     0.0     0.0     0.0     0.0     0.0     0.0     0.0     0.0     0.0     0.0     0.0     5.2     0.0     0.0     0.0     0.0     0.0     0.0     0.0     0.0     0.0
   17 047   116    0.02    0.01    0.07    0.01    26.6   0.001   0.027   0.010   0.107     1.2     0.0     8.1     0.0    1187    0.00    1.19    0.00   20.52     0.0     0.0     0.0     0.0     0.0     0.0     0.0     0.0     0.0     0.0   1187.      0.      0.      0.      0.      0.      0.      0.      0.      0.     1.2     0.0     0.0     0.0     0.0     0.0     0.0     0.0     0.0     0.0     0.0     0.0     0.0     0.0     0.0     0.0     0.0     0.0     0.0     0.0    20.5     0.0     0.0     0.0     0.0     0.0     0.0     0.0     0.0     0.0
   17 048   117    0.02    0.01    0.08    0.01    27.9   0.001   0.028   0.010   0.123     1.2     0.0     9.6     0.0    1246    0.00    1.25    0.00   16.39     0.0     0.0     0.0     0.0     0.0     0.0     0.0     0.0     0.0     0.0   1245.      0.      0.      0.      0.      0.      0.      0.      0.      0.     1.2     0.0     0.0     0.0     0.0     0.0     0.0     0.0     0.0     0.0     0.0     0.0     0.0     0.0     0.0     0.0     0.0     0.0     0.0     0.0    16.4     0.0     0.0     0.0     0.0     0.0     0.0     0.0     0.0     0.0
   17 049   118    0.02    0.01    0.09    0.01    29.1   0.001   0.029   0.010   0.133     1.1     0.0     8.8     0.0    1231    0.00    1.23    0.00    9.94     0.0     0.0     0.0     0.0     0.0     0.0     0.0     0.0     0.0     0.0   1231.      0.      0.      0.      0.      0.      0.      0.      0.      0.     1.2     0.0     0.0     0.0     0.0     0.0     0.0     0.0     0.0     0.0     0.0     0.0     0.0     0.0     0.0     0.0     0.0     0.0     0.0     0.0     9.9     0.0     0.0     0.0     0.0     0.0     0.0     0.0     0.0     0.0
   17 050   119    0.02    0.01    0.10    0.01    30.3   0.001   0.030   0.010   0.143     1.2     0.0     9.7     0.0    1176    0.00    1.18    0.00    9.75     0.0     0.0     0.0     0.0     0.0     0.0     0.0     0.0     0.0     0.0   1175.      1.      0.      0.      0.      0.      0.      0.      0.      0.     1.2     0.0     0.0     0.0     0.0     0.0     0.0     0.0     0.0     0.0     0.0     0.0     0.0     0.0     0.0     0.0     0.0     0.0     0.0     0.0     9.7     0.0     0.0     0.0     0.0     0.0     0.0     0.0     0.0     0.0
   17 051   120    0.03    0.01    0.11    0.01    31.4   0.001   0.031   0.010   0.150     1.2     0.0     9.4     0.0    1106    0.00    1.11    0.00    7.58     0.0     0.0     0.0     0.0     0.0     0.0     0.0     0.0     0.0     0.0   1105.      1.      0.      0.      0.      0.      0.      0.      0.      0.     1.1     0.0     0.0     0.0     0.0     0.0     0.0     0.0     0.0     0.0     0.0     0.0     0.0     0.0     0.0     0.0     0.0     0.0     0.0     0.0     7.6     0.0     0.0     0.0     0.0     0.0     0.0     0.0     0.0     0.0
   17 052   121    0.03    0.01    0.12    0.01    32.4   0.001   0.032   0.010   0.154     1.0     0.0     6.9     0.0    1041    0.00    1.04    0.00    3.20     0.0     0.0     0.0     0.0     0.0     0.0     0.0     0.0     0.0     0.0   1039.      1.      0.      0.      0.      0.      0.      0.      0.      0.     1.0     0.0     0.0     0.0     0.0     0.0     0.0     0.0     0.0     0.0     0.0     0.0     0.0     0.0     0.0     0.0     0.0     0.0     0.0     0.0     3.2     0.0     0.0     0.0     0.0     0.0     0.0     0.0     0.0     0.0
   17 053   122    0.03    0.01    0.12    0.01    33.1   0.001   0.033   0.010   0.154     0.5     0.0     3.2     0.0     718    0.00    0.72    0.00    0.51     0.0     0.0     0.0     0.0     0.0     0.0     0.0     0.0     0.0     0.0    716.      2.      0.      0.      0.      0.      0.      0.      0.      0.     0.7     0.0     0.0     0.0     0.0     0.0     0.0     0.0     0.0     0.0     0.0     0.0     0.0     0.0     0.0     0.0     0.0     0.0     0.0     0.0     0.5     0.0     0.0     0.0     0.0     0.0     0.0     0.0     0.0     0.0
   17 054   123    0.03    0.01    0.12    0.01    34.2   0.001   0.034   0.010   0.156     0.9     0.0     4.9     0.0    1030    0.00    1.03    0.00    1.58     0.0     0.0     0.0     0.0     0.0     0.0     0.0     0.0     0.0     0.0   1026.      2.      0.      0.      0.      0.      0.      0.      0.      0.     1.0     0.0     0.0     0.0     0.0     0.0     0.0     0.0     0.0     0.0     0.0     0.0     0.0     0.0     0.0     0.0     0.0     0.0     0.0     0.0     1.6     0.0     0.0     0.0     0.0     0.0     0.0     0.0     0.0     0.0
   17 055   124    0.03    0.01    0.13    0.01    35.4   0.001   0.035   0.010   0.160     1.2     0.0     6.0     0.0    1280    0.00    1.28    0.00    4.05     0.0     0.0     0.0     0.0     0.0     0.0     0.0     0.0     0.0     0.0   1273.      3.      0.      0.      0.      0.      0.      0.      0.      0.     1.3     0.0     0.0     0.0     0.0     0.0     0.0     0.0     0.0     0.0     0.0     0.0     0.0     0.0     0.0     0.0     0.0     0.0     0.0     0.0     4.0     0.0     0.0     0.0     0.0     0.0     0.0     0.0     0.0     0.0
   17 056   125    0.03    0.01    0.14    0.01    36.7   0.001   0.037   0.010   0.165     1.4     0.0     6.4     0.0    1255    0.00    1.26    0.00    5.25     0.0     0.0     0.0     0.0     0.0     0.0     0.0     0.0     0.0     0.0   1244.      3.      0.      0.      0.      0.      0.      0.      0.      1.     1.2     0.0     0.0     0.0     0.0     0.0     0.0     0.0     0.0     0.0     0.0     0.0     0.0     0.0     0.0     0.0     0.0     0.0     0.0     0.0     5.2     0.0     0.0     0.0     0.0     0.0     0.0     0.0     0.0     0.0
   17 057   126    0.03    0.01    0.14    0.01    37.8   0.001   0.038   0.010   0.169     1.3     0.0     6.1     0.0    1085    0.00    1.08    0.00    4.52     0.0     0.0     0.0     0.0     0.0     0.0     0.0     0.0     0.0     0.0   1068.      3.      0.      0.      0.      0.      0.      0.      1.      1.     1.1     0.0     0.0     0.0     0.0     0.0     0.0     0.0     0.0     0.0     0.0     0.0     0.0     0.0     0.0     0.0     0.0     0.0     0.0     0.0     4.5     0.0     0.0     0.0     0.0     0.0     0.0     0.0     0.0     0.0
   17 058   127    0.03    0.01    0.15    0.01    38.7   0.001   0.039   0.010   0.173     1.2     0.0     5.7     0.0     938    0.00    0.94    0.00    3.92     0.0     0.0     0.0     0.0     0.0     0.0     0.0     0.0     0.0     0.0    918.      2.      0.      0.      0.      0.      0.      1.      1.      2.     0.9     0.0     0.0     0.0     0.0     0.0     0.0     0.0     0.0     0.0     0.0     0.0     0.0     0.0     0.0     0.0     0.0     0.0     0.0     0.0     3.9     0.0     0.0     0.0     0.0     0.0     0.0     0.0     0.0     0.0
   17 059   128    0.03    0.01    0.15    0.01    39.5   0.001   0.039   0.010   0.177     1.2     0.0     5.3     0.0     790    0.00    0.79    0.00    3.35     0.0     0.0     0.0     0.0     0.0     0.0     0.0     0.0     0.0     0.0    769.      1.      0.      0.      0.      0.      1.      1.      1.      2.     0.8     0.0     0.0     0.0     0.0     0.0     0.0     0.0     0.0     0.0     0.0     0.0     0.0     0.0     0.0     0.0     0.0     0.0     0.0     0.0     3.3     0.0     0.0     0.0     0.0     0.0     0.0     0.0     0.0     0.0
   17 060   129    0.03    0.01    0.15    0.01    39.8   0.001   0.040   0.010   0.177     0.3     0.0     1.4     0.0     341    0.00    0.34    0.00    0.17     0.0     0.0     0.0     0.0     0.0     0.0     0.0     0.0     0.0     0.0    322.      1.      0.      0.      0.      0.      0.      1.      1.      2.     0.3     0.0     0.0     0.0     0.0     0.0     0.0     0.0     0.0     0.0     0.0     0.0     0.0     0.0     0.0     0.0     0.0     0.0     0.0     0.0     0.1     0.0     0.0     0.0     0.0     0.0     0.0     0.0     0.0     0.0
   17 061   130    0.04    0.01    0.16    0.01    40.2   0.001   0.040   0.010   0.177     0.3     0.0     1.4     0.0     329    0.00    0.33    0.00    0.16     0.0     0.0     0.0     0.0     0.0     0.0     0.0     0.0     0.0     0.0    312.      1.      0.      0.      0.      0.      0.      1.      1.      1.     0.3     0.0     0.0     0.0     0.0     0.0     0.0     0.0     0.0     0.0     0.0     0.0     0.0     0.0     0.0     0.0     0.0     0.0     0.0     0.0     0.1     0.0     0.0     0.0     0.0     0.0     0.0     0.0     0.0     0.0
   17 062   131    0.04    0.01    0.16    0.01    40.7   0.001   0.041   0.010   0.178     0.7     0.0     2.7     0.0     498    0.00    0.50    0.00    0.68     0.0     0.0     0.0     0.0     0.0     0.0     0.0     0.0     0.0     0.0    481.      1.      0.      0.      0.      0.      0.      0.      1.      1.     0.5     0.0     0.0     0.0     0.0     0.0     0.0     0.0     0.0     0.0     0.0     0.0     0.0     0.0     0.0     0.0     0.0     0.0     0.0     0.0     0.7     0.0     0.0     0.0     0.0     0.0     0.0     0.0     0.0     0.0
   17 063   132    0.04    0.01    0.16    0.01    41.2   0.001   0.041   0.010   0.179     0.9     0.0     3.3     0.0     525    0.00    0.52    0.00    1.55     0.0     0.0     0.0     0.0     0.0     0.0     0.0     0.0     0.0     0.0    509.      1.      0.      0.      0.      0.      0.      0.      1.      1.     0.5     0.0     0.0     0.0     0.0     0.0     0.0     0.0     0.0     0.0     0.0     0.0     0.0     0.0     0.0     0.0     0.0     0.0     0.0     0.0     1.5     0.0     0.0     0.0     0.0     0.0     0.0     0.0     0.0     0.0
   17 064   133    0.04    0.01    0.17    0.01    41.7   0.001   0.042   0.010   0.181     0.9     0.0     3.5     0.0     521    0.00    0.52    0.00    2.15     0.0     0.0     0.0     0.0     0.0     0.0     0.0     0.0     0.0     0.0    506.      1.      0.      0.      0.      0.      0.      0.      1.      1.     0.5     0.0     0.0     0.0     0.0     0.0     0.0     0.0     0.0     0.0     0.0     0.0     0.0     0.0     0.0     0.0     0.0     0.0     0.0     0.0     2.1     0.0     0.0     0.0     0.0     0.0     0.0     0.0     0.0     0.0
   17 065   134    0.04    0.01    0.17    0.01    42.2   0.001   0.042   0.010   0.183     0.7     0.0     2.6     0.0     466    0.00    0.47    0.00    1.19     0.0     0.0     0.0     0.0     0.0     0.0     0.0     0.0     0.0     0.0    451.      1.      0.      0.      0.      0.      0.      0.      1.      1.     0.5     0.0     0.0     0.0     0.0     0.0     0.0     0.0     0.0     0.0     0.0     0.0     0.0     0.0     0.0     0.0     0.0     0.0     0.0     0.0     1.2     0.0     0.0     0.0     0.0     0.0     0.0     0.0     0.0     0.0
   17 066   135    0.04    0.01    0.17    0.01    42.6   0.001   0.043   0.010   0.184     0.7     0.0     2.4     0.0     429    0.00    0.43    0.00    1.08     0.0     0.0     0.0     0.0     0.0     0.0     0.0     0.0     0.0     0.0    413.      1.      0.      0.      0.      0.      0.      0.      1.      1.     0.4     0.0     0.0     0.0     0.0     0.0     0.0     0.0     0.0     0.0     0.0     0.0     0.0     0.0     0.0     0.0     0.0     0.0     0.0     0.0     1.1     0.0     0.0     0.0     0.0     0.0     0.0     0.0     0.0     0.0
   17 067   136    0.04    0.01    0.17    0.01    43.0   0.001   0.043   0.010   0.185     0.7     0.0     2.5     0.0     396    0.00    0.40    0.00    1.49     0.0     0.0     0.0     0.0     0.0     0.0     0.0     0.0     0.0     0.0    381.      1.      0.      0.      0.      0.      0.      0.      1.      1.     0.4     0.0     0.0     0.0     0.0     0.0     0.0     0.0     0.0     0.0     0.0     0.0     0.0     0.0     0.0     0.0     0.0     0.0     0.0     0.0     1.5     0.0     0.0     0.0     0.0     0.0     0.0     0.0     0.0     0.0
   17 068   137    0.04    0.01    0.17    0.01    43.2   0.001   0.043   0.010   0.185     0.3     0.0     0.8     0.0     214    0.00    0.21    0.00    0.12     0.0     0.0     0.0     0.0     0.0     0.0     0.0     0.0     0.0     0.0    198.      1.      0.      0.      0.      0.      0.      0.      1.      1.     0.2     0.0     0.0     0.0     0.0     0.0     0.0     0.0     0.0     0.0     0.0     0.0     0.0     0.0     0.0     0.0     0.0     0.0     0.0     0.0     0.1     0.0     0.0     0.0     0.0     0.0     0.0     0.0     0.0     0.0
   17 069   138    0.04    0.01    0.17    0.02    43.4   0.002   0.043   0.015   0.186     0.2     0.0     0.7     6.1     184    0.77    0.18    5.33    0.89     0.0     0.0     0.0     6.1     0.0     0.0     0.0     0.0     0.0     0.0    169.      0.      0.      0.      0.      0.      0.      0.      1.      1.     0.2     0.0     0.0     0.8     0.0     0.0     0.0     0.0     0.0     0.0     0.0     0.0     0.0     5.3     0.0     0.0     0.0     0.0     0.0     0.0     0.1     0.0     0.0     0.8     0.0     0.0     0.0     0.0     0.0     0.0
   17 070   139    0.04    0.01    0.18    0.02    43.6   0.002   0.044   0.015   0.187     0.4     0.0     1.3     0.0     245    0.00    0.24    0.00    0.30     0.0     0.0     0.0     0.0     0.0     0.0     0.0     0.0     0.0     0.0    230.      0.      0.      0.      0.      0.      0.      0.      1.      1.     0.2     0.0     0.0     0.0     0.0     0.0     0.0     0.0     0.0     0.0     0.0     0.0     0.0     0.0     0.0     0.0     0.0     0.0     0.0     0.0     0.3     0.0     0.0     0.0     0.0     0.0     0.0     0.0     0.0     0.0
[...]
   17 185   254    0.02    0.01    0.05    0.01    33.0   0.001   0.034   0.012   0.068     0.3     0.0     0.6     0.0     386    0.00    0.39    0.00    0.68     0.0     0.0     0.0     0.0     0.0     0.0     0.0     0.0     0.0     0.0     28.     47.      9.     14.     16.     15.     16.     16.     31.     34.     0.0     0.0     0.0     0.0     0.0     0.0     0.0     0.0     0.0     0.0     0.0     0.0     0.0     0.0     0.0     0.0     0.0     0.0     0.0     0.0     0.1     0.2     0.0     0.0     0.0     0.0     0.0     0.0     0.0     0.0
   17 186   255    0.02    0.01    0.05    0.01    33.4   0.001   0.034   0.012   0.069     0.3     0.0     0.6     0.0     387    0.00    0.39    0.00    0.69     0.0     0.0     0.0     0.0     0.0     0.0     0.0     0.0     0.0     0.0     29.     47.     10.     14.     16.     15.     16.     16.     31.     34.     0.0     0.0     0.0     0.0     0.0     0.0     0.0     0.0     0.0     0.0     0.0     0.0     0.0     0.0     0.0     0.0     0.0     0.0     0.0     0.0     0.1     0.2     0.0     0.0     0.0     0.0     0.0     0.0     0.0     0.0
   17 187   256    0.02    0.01    0.05    0.01    33.7   0.001   0.034   0.012   0.069     0.3     0.0     0.6     0.0     397    0.00    0.40    0.00    0.72     0.0     0.0     0.0     0.0     0.0     0.0     0.0     0.0     0.0     0.0     31.     49.     10.     14.     16.     15.     16.     17.     32.     35.     0.0     0.0     0.0     0.0     0.0     0.0     0.0     0.0     0.0     0.0     0.0     0.0     0.0     0.0     0.0     0.0     0.0     0.0     0.0     0.0     0.1     0.2     0.0     0.0     0.0     0.0     0.0     0.0     0.0     0.0
   17 188   257    0.02    0.01    0.05    0.01    34.2   0.001   0.035   0.012   0.070     0.3     0.0     0.6     0.0     423    0.00    0.42    0.00    0.78     0.0     0.0     0.0     0.0     0.0     0.0     0.0     0.0     0.0     0.0     35.     54.     11.     15.     17.     16.     17.     18.     34.     37.     0.0     0.1     0.0     0.0     0.0     0.0     0.0     0.0     0.0     0.0     0.0     0.0     0.0     0.0     0.0     0.0     0.0     0.0     0.0     0.0     0.2     0.2     0.0     0.0     0.0     0.0     0.0     0.0     0.0     0.0
   17 189   258    0.02    0.01    0.05    0.01    34.6   0.001   0.035   0.012   0.071     0.3     0.0     0.7     0.0     456    0.00    0.46    0.00    0.86     0.0     0.0     0.0     0.0     0.0     0.0     0.0     0.0     0.0     0.0     37.     61.     13.     17.     19.     18.     19.     19.     37.     40.     0.0     0.1     0.0     0.0     0.0     0.0     0.0     0.0     0.0     0.0     0.0     0.0     0.0     0.0     0.0     0.0     0.0     0.0     0.0     0.0     0.2     0.2     0.0     0.0     0.0     0.0     0.0     0.0     0.0     0.0
   17 190   259    0.02    0.01    0.05    0.01    35.1   0.001   0.036   0.012   0.072     0.3     0.0     0.7     0.0     488    0.00    0.49    0.00    0.92     0.0     0.0     0.0     0.0     0.0     0.0     0.0     0.0     0.0     0.0     36.     69.     15.     18.     20.     19.     20.     20.     39.     43.     0.0     0.1     0.0     0.0     0.0     0.0     0.0     0.0     0.0     0.0     0.0     0.0     0.0     0.0     0.0     0.0     0.0     0.0     0.0     0.0     0.2     0.2     0.0     0.0     0.0     0.0     0.0     0.0     0.0     0.0
   17 191   260    0.02    0.01    0.05    0.01    35.6   0.001   0.036   0.012   0.072     0.1     0.0     0.2     0.0     471    0.00    0.47    0.00    0.54     0.0     0.0     0.0     0.0     0.0     0.0     0.0     0.0     0.0     0.0     22.     53.     12.     18.     20.     19.     21.     21.     41.     45.     0.0     0.1     0.0     0.0     0.0     0.0     0.0     0.0     0.0     0.0     0.0     0.0     0.0     0.0     0.0     0.0     0.0     0.0     0.0     0.0     0.0     0.0     0.0     0.0     0.0     0.0     0.0     0.0     0.0     0.0
   17 192   261    0.02    0.01    0.05    0.01    36.1   0.001   0.037   0.012   0.073     0.1     0.0     0.2     0.0     497    0.00    0.50    0.00    0.56     0.0     0.0     0.0     0.0     0.0     0.0     0.0     0.0     0.0     0.0     29.     63.     11.     19.     20.     19.     21.     22.     42.     46.     0.0     0.1     0.0     0.0     0.0     0.0     0.0     0.0     0.0     0.0     0.0     0.0     0.0     0.0     0.0     0.0     0.0     0.0     0.0     0.0     0.0     0.0     0.0     0.0     0.0     0.0     0.0     0.0     0.0     0.0
   17 193   262    0.02    0.01    0.05    0.01    36.6   0.001   0.037   0.012   0.074     0.1     0.0     0.3     0.0     502    0.00    0.50    0.00    0.59     0.0     0.0     0.0     0.0     0.0     0.0     0.0     0.0     0.0     0.0     35.     71.     12.     21.     19.     18.     20.     20.     40.     45.     0.0     0.1     0.0     0.0     0.0     0.0     0.0     0.0     0.0     0.0     0.0     0.0     0.0     0.0     0.0     0.0     0.0     0.0     0.0     0.0     0.0     0.1     0.0     0.0     0.0     0.0     0.0     0.0     0.0     0.0
   17 194   263    0.02    0.01    0.05    0.01    37.1   0.001   0.038   0.012   0.074     0.2     0.0     0.3     0.0     493    0.00    0.49    0.00    0.60     0.0     0.0     0.0     0.0     0.0     0.0     0.0     0.0     0.0     0.0     36.     71.     14.     20.     17.     17.     19.     20.     39.     43.     0.0     0.1     0.0     0.0     0.0     0.0     0.0     0.0     0.0     0.0     0.0     0.0     0.0     0.0     0.0     0.0     0.0     0.0     0.0     0.0     0.0     0.1     0.0     0.0     0.0     0.0     0.0     0.0     0.0     0.0
   17 195   264    0.02    0.01    0.05    0.01    37.5   0.001   0.038   0.013   0.075     0.3     0.0     0.6     0.5     464    0.00    0.46    0.49    0.80     0.0     0.1     0.4     0.0     0.0     0.0     0.0     0.0     0.0     0.0     36.     67.     16.     22.     15.     15.     17.     17.     35.     40.     0.0     0.1     0.0     0.0     0.0     0.0     0.0     0.0     0.0     0.0     0.0     0.1     0.4     0.0     0.0     0.0     0.0     0.0     0.0     0.0     0.1     0.2     0.0     0.0     0.0     0.0     0.0     0.0     0.0     0.0
   17 196   265    0.02    0.01    0.05    0.01    37.9   0.001   0.039   0.014   0.075     0.1     0.0     0.2     1.2     404    0.01    0.40    1.22    0.50     0.0     0.6     0.6     0.0     0.0     0.0     0.0     0.0     0.0     0.0     21.     53.     13.     18.     15.     13.     15.     16.     32.     36.     0.0     0.1     0.0     0.0     0.0     0.0     0.0     0.0     0.0     0.0     0.0     0.6     0.6     0.0     0.0     0.0     0.0     0.0     0.0     0.0     0.0     0.1     0.0     0.0     0.0     0.0     0.0     0.0     0.0     0.0
   17 197   266    0.02    0.01    0.05    0.02    38.3   0.001   0.039   0.014   0.076     0.3     0.0     0.5     0.3     391    0.00    0.39    0.28    0.59     0.0     0.1     0.2     0.0     0.0     0.0     0.0     0.0     0.0     0.0     27.     50.     13.     19.     15.     12.     14.     15.     29.     34.     0.0     0.1     0.0     0.0     0.0     0.0     0.0     0.0     0.0     0.0     0.0     0.1     0.2     0.0     0.0     0.0     0.0     0.0     0.0     0.0     0.1     0.1     0.0     0.0     0.0     0.0     0.0     0.0     0.0     0.0
   17 198   267    0.02    0.01    0.05    0.02    38.7   0.001   0.039   0.014   0.077     0.3     0.1     0.7     0.0     374    0.00    0.37    0.00    0.65     0.0     0.0     0.0     0.0     0.0     0.0     0.0     0.0     0.0     0.0     25.     47.     12.     18.     16.     12.     13.     14.     28.     32.     0.0     0.0     0.0     0.0     0.0     0.0     0.0     0.0     0.0     0.0     0.0     0.0     0.0     0.0     0.0     0.0     0.0     0.0     0.0     0.0     0.1     0.2     0.0     0.0     0.0     0.0     0.0     0.0     0.0     0.0
   17 199   268    0.02    0.01    0.05    0.02    39.1   0.001   0.040   0.014   0.077     0.3     0.1     0.7     0.0     363    0.00    0.36    0.00    0.63     0.0     0.0     0.0     0.0     0.0     0.0     0.0     0.0     0.0     0.0     25.     44.     11.     17.     17.     11.     13.     13.     27.     31.     0.0     0.0     0.0     0.0     0.0     0.0     0.0     0.0     0.0     0.0     0.0     0.0     0.0     0.0     0.0     0.0     0.0     0.0     0.0     0.0     0.1     0.1     0.0     0.0     0.0     0.0     0.0     0.0     0.0     0.0
   17 200   269    0.02    0.01    0.05    0.02    39.5   0.001   0.040   0.014   0.078     0.3     0.1     0.7     0.0     382    0.00    0.38    0.00    0.67     0.0     0.0     0.0     0.0     0.0     0.0     0.0     0.0     0.0     0.0     27.     46.     11.     18.     19.     12.     13.     14.     29.     33.     0.0     0.0     0.0     0.0     0.0     0.0     0.0     0.0     0.0     0.0     0.0     0.0     0.0     0.0     0.0     0.0     0.0     0.0     0.0     0.0     0.1     0.2     0.0     0.0     0.0     0.0     0.0     0.0     0.0     0.0
   17 201   270    0.02    0.01    0.05    0.02    39.9   0.001   0.040   0.014   0.079     0.3     0.1     0.7     0.0     431    0.00    0.43    0.00    0.77     0.0     0.0     0.0     0.0     0.0     0.0     0.0     0.0     0.0     0.0     33.     54.     13.     22.     23.     13.     15.     16.     32.     36.     0.0     0.1     0.0     0.0     0.0     0.0     0.0     0.0     0.0     0.0     0.0     0.0     0.0     0.0     0.0     0.0     0.0     0.0     0.0     0.0     0.1     0.2     0.0     0.0     0.0     0.0     0.0     0.0     0.0     0.0
   17 202   271    0.02    0.01    0.06    0.02    40.4   0.001   0.041   0.014   0.080     0.3     0.1     0.7     0.0     488    0.00    0.49    0.00    0.91     0.0     0.0     0.0     0.0     0.0     0.0     0.0     0.0     0.0     0.0     40.     70.     16.     28.     28.     14.     16.     17.     34.     40.     0.0     0.1     0.0     0.0     0.0     0.0     0.0     0.0     0.0     0.0     0.0     0.0     0.0     0.0     0.0     0.0     0.0     0.0     0.0     0.0     0.2     0.2     0.0     0.1     0.1     0.0     0.0     0.0     0.0     0.0
   17 203   272    0.02    0.01    0.06    0.02    40.9   0.001   0.041   0.014   0.081     0.3     0.1     0.7     0.0     542    0.00    0.54    0.00    1.04     0.0     0.0     0.0     0.0     0.0     0.0     0.0     0.0     0.0     0.0     44.     84.     19.     33.     33.     15.     17.     18.     37.     43.     0.0     0.1     0.0     0.0     0.0     0.0     0.0     0.0     0.0     0.0     0.0     0.0     0.0     0.0     0.0     0.0     0.0     0.0     0.0     0.0     0.2     0.3     0.1     0.1     0.1     0.0     0.0     0.0     0.0     0.0
   17 204   273    0.02    0.01    0.06    0.02    41.5   0.001   0.042   0.014   0.082     0.3     0.1     0.7     0.0     582    0.00    0.58    0.00    1.11     0.0     0.0     0.0     0.0     0.0     0.0     0.0     0.0     0.0     0.0     46.     96.     22.     38.     37.     15.     17.     19.     39.     45.     0.0     0.1     0.0     0.0     0.0     0.0     0.0     0.0     0.0     0.0     0.0     0.0     0.0     0.0     0.0     0.0     0.0     0.0     0.0     0.0     0.2     0.3     0.1     0.1     0.1     0.0     0.0     0.0     0.0     0.0
   17 205   274    0.03    0.01    0.06    0.02    42.1   0.001   0.043   0.014   0.083     0.3     0.1     0.7     0.0     593    0.00    0.59    0.00    1.15     0.0     0.0     0.0     0.0     0.0     0.0     0.0     0.0     0.0     0.0     50.     99.     23.     40.     38.     15.     17.     18.     39.     45.     0.1     0.1     0.0     0.0     0.0     0.0     0.0     0.0     0.0     0.0     0.0     0.0     0.0     0.0     0.0     0.0     0.0     0.0     0.0     0.0     0.2     0.3     0.1     0.1     0.1     0.0     0.0     0.0     0.0     0.0
   17 206   275    0.03    0.01    0.06    0.02    42.6   0.001   0.043   0.014   0.084     0.3     0.1     0.7     0.0     541    0.00    0.54    0.00    1.04     0.0     0.0     0.0     0.0     0.0     0.0     0.0     0.0     0.0     0.0     45.     89.     21.     36.     35.     13.     15.     16.     35.     41.     0.0     0.1     0.0     0.0     0.0     0.0     0.0     0.0     0.0     0.0     0.0     0.0     0.0     0.0     0.0     0.0     0.0     0.0     0.0     0.0     0.2     0.3     0.1     0.1     0.1     0.0     0.0     0.0     0.0     0.0
   17 207   276    0.03    0.01    0.06    0.02    43.1   0.001   0.044   0.014   0.084     0.1     0.0     0.3     0.0     438    0.00    0.44    0.00    0.47     0.0     0.0     0.0     0.0     0.0     0.0     0.0     0.0     0.0     0.0     26.     45.     10.     28.     33.     12.     14.     15.     33.     39.     0.0     0.0     0.0     0.0     0.0     0.0     0.0     0.0     0.0     0.0     0.0     0.0     0.0     0.0     0.0     0.0     0.0     0.0     0.0     0.0     0.0     0.0     0.0     0.0     0.1     0.0     0.0     0.0     0.0     0.0
   17 208   277    0.03    0.01    0.06    0.02    43.4   0.001   0.044   0.014   0.085     0.1     0.0     0.2     0.0     379    0.00    0.38    0.00    0.35     0.0     0.0     0.0     0.0     0.0     0.0     0.0     0.0     0.0     0.0     24.     43.     10.     15.     14.     11.     13.     14.     30.     35.     0.0     0.0     0.0     0.0     0.0     0.0     0.0     0.0     0.0     0.0     0.0     0.0     0.0     0.0     0.0     0.0     0.0     0.0     0.0     0.0     0.0     0.0     0.0     0.0     0.0     0.0     0.0     0.0     0.0     0.0
   17 209   278    0.03    0.01    0.06    0.02    43.8   0.001   0.044   0.014   0.085     0.1     0.0     0.2     0.0     367    0.00    0.37    0.00    0.33     0.0     0.0     0.0     0.0     0.0     0.0     0.0     0.0     0.0     0.0     24.     47.     10.     16.     14.      9.     11.     13.     27.     33.     0.0     0.0     0.0     0.0     0.0     0.0     0.0     0.0     0.0     0.0     0.0     0.0     0.0     0.0     0.0     0.0     0.0     0.0     0.0     0.0     0.0     0.0     0.0     0.0     0.0     0.0     0.0     0.0     0.0     0.0
   17 210   279    0.03    0.01    0.06    0.02    44.2   0.001   0.045   0.014   0.086     0.3     0.1     0.6     0.0     421    0.00    0.42    0.00    0.50     0.0     0.0     0.0     0.0     0.0     0.0     0.0     0.0     0.0     0.0     41.     66.     15.     24.     22.     12.     12.     12.     27.     32.     0.0     0.1     0.0     0.0     0.0     0.0     0.0     0.0     0.0     0.0     0.0     0.0     0.0     0.0     0.0     0.0     0.0     0.0     0.0     0.0     0.1     0.1     0.0     0.0     0.0     0.0     0.0     0.0     0.0     0.0
   17 211   280    0.03    0.01    0.06    0.02    44.7   0.001   0.045   0.015   0.087     0.4     0.1     0.7     0.7     481    0.01    0.48    0.72    0.89     0.0     0.1     0.2     0.4     0.0     0.0     0.0     0.0     0.0     0.0     48.     83.     19.     31.     29.     15.     15.     15.     28.     34.     0.0     0.1     0.0     0.0     0.0     0.0     0.0     0.0     0.0     0.0     0.0     0.1     0.2     0.4     0.0     0.0     0.0     0.0     0.0     0.0     0.2     0.3     0.0     0.1     0.0     0.0     0.0     0.0     0.0     0.0
   17 212   281    0.03    0.01    0.06    0.02    45.3   0.001   0.046   0.015   0.088     0.4     0.1     0.8     0.4     551    0.01    0.55    0.36    1.09     0.0     0.0     0.1     0.1     0.2     0.0     0.0     0.0     0.0     0.0     55.     96.     22.     37.     34.     19.     19.     19.     32.     37.     0.1     0.1     0.0     0.0     0.0     0.0     0.0     0.0     0.0     0.0     0.0     0.0     0.1     0.1     0.2     0.0     0.0     0.0     0.0     0.0     0.2     0.3     0.1     0.1     0.1     0.0     0.0     0.0     0.0     0.0
   17 213   282    0.03    0.01    0.06    0.02    45.9   0.001   0.047   0.015   0.089     0.4     0.1     0.8     0.0     648    0.00    0.65    0.00    1.30     0.0     0.0     0.0     0.0     0.0     0.0     0.0     0.0     0.0     0.0     64.    110.     27.     48.     47.     28.     24.     24.     36.     42.     0.1     0.1     0.0     0.0     0.0     0.0     0.0     0.0     0.0     0.0     0.0     0.0     0.0     0.0     0.0     0.0     0.0     0.0     0.0     0.0     0.3     0.4     0.1     0.1     0.1     0.0     0.0     0.0     0.0     0.0
   17 214   283    0.03    0.01    0.06    0.02    46.6   0.001   0.047   0.015   0.090     0.2     0.0     0.5     0.0     708    0.00    0.71    0.00    1.20     0.0     0.0     0.0     0.0     0.0     0.0     0.0     0.0     0.0     0.0     54.    122.     30.     52.     51.     34.     30.     29.     41.     46.     0.1     0.1     0.0     0.1     0.1     0.0     0.0     0.0     0.0     0.0     0.0     0.0     0.0     0.0     0.0     0.0     0.0     0.0     0.0     0.0     0.1     0.4     0.1     0.1     0.1     0.1     0.0     0.0     0.0     0.0
   17 215   284    0.03    0.01    0.06    0.02    47.4   0.001   0.048   0.015   0.092     0.4     0.1     0.9     0.0     787    0.00    0.79    0.00    1.58     0.0     0.0     0.0     0.0     0.0     0.0     0.0     0.0     0.0     0.0     83.    131.     32.     55.     54.     38.     34.     33.     44.     49.     0.1     0.1     0.0     0.1     0.1     0.0     0.0     0.0     0.0     0.0     0.0     0.0     0.0     0.0     0.0     0.0     0.0     0.0     0.0     0.0     0.3     0.4     0.1     0.1     0.1     0.1     0.0     0.0     0.1     0.1
   17 216   285    0.03    0.01    0.06    0.02    48.2   0.001   0.049   0.015   0.093     0.2     0.0     0.4     0.0     779    0.00    0.78    0.00    1.19     0.0     0.0     0.0     0.0     0.0     0.0     0.0     0.0     0.0     0.0     56.    128.     30.     56.     55.     40.     37.     36.     46.     51.     0.1     0.1     0.0     0.1     0.1     0.0     0.0     0.0     0.0     0.1     0.0     0.0     0.0     0.0     0.0     0.0     0.0     0.0     0.0     0.0     0.0     0.3     0.1     0.1     0.1     0.1     0.1     0.0     0.1     0.1
   17 217   286    0.03    0.01    0.06    0.02    49.0   0.001   0.050   0.015   0.094     0.4     0.1     0.9     0.0     815    0.00    0.81    0.00    1.50     0.0     0.0     0.0     0.0     0.0     0.0     0.0     0.0     0.0     0.0     86.    131.     32.     54.     53.     41.     39.     37.     45.     50.     0.1     0.1     0.0     0.1     0.1     0.0     0.0     0.0     0.0     0.1     0.0     0.0     0.0     0.0     0.0     0.0     0.0     0.0     0.0     0.0     0.2     0.4     0.1     0.1     0.1     0.1     0.1     0.0     0.1     0.1
   17 218   287    0.03    0.01    0.07    0.02    49.8   0.001   0.050   0.015   0.096     0.5     0.1     1.0     0.0     814    0.00    0.81    0.00    1.62     0.0     0.0     0.0     0.0     0.0     0.0     0.0     0.0     0.0     0.0     86.    129.     31.     54.     52.     42.     40.     38.     45.     50.     0.1     0.1     0.0     0.1     0.1     0.0     0.0     0.0     0.0     0.0     0.0     0.0     0.0     0.0     0.0     0.0     0.0     0.0     0.0     0.0     0.4     0.4     0.1     0.1     0.1     0.1     0.1     0.1     0.1     0.1
   17 219   288    0.03    0.01    0.07    0.02    50.5   0.001   0.051   0.015   0.097     0.5     0.1     1.1     0.0     728    0.00    0.73    0.00    1.42     0.0     0.0     0.0     0.0     0.0     0.0     0.0     0.0     0.0     0.0     72.    111.     27.     47.     46.     38.     36.     35.     40.     45.     0.1     0.1     0.0     0.0     0.0     0.0     0.0     0.0     0.0     0.0     0.0     0.0     0.0     0.0     0.0     0.0     0.0     0.0     0.0     0.0     0.3     0.4     0.1     0.1     0.1     0.1     0.1     0.0     0.0     0.0
