*SIMULATION OVERVIEW FILE

*DSSAT Cropping System Model Ver. 4.8.5.000 -release  NOV 27, 2025 15:48:48

*RUN   1        : 1                         WHAPS048 TUDU1701    1
 MODEL          : WHAPS048 - Wheat
 EXPERIMENT     : TUDU1701 WH
 DATA PATH      :
 TREATMENT  1   : 1                         WHAPS048


 CROP           : Wheat            CULTIVAR : Bacanora 88      ECOTYPE :IB0003
 STARTING DATE  : OCT 24   16
 PLANTING DATE  : OCT 24   16      PLANTS/m2 :   400.0    ROW SPACING :  12.cm
 HARVEST DATE   : AUG  7   17
 WEATHER        : TUDU     16
 SOIL           : DE02157980     TEXTURE : -99   - -99
 SOIL INIT COND : DEPTH:210cm EXTR. H2O:268.2mm  NO3: 93.5kg/ha  NH4:  9.1kg/ha
 WATER BALANCE  : RAINFED
 IRRIGATION     : NOT IRRIGATED
 NITROGEN BAL.  : SOIL-N & N-UPTAKE SIMULATION; NO N-FIXATION
 N-FERTILIZER   :      120 kg/ha IN     3 APPLICATIONS
 RESIDUE/MANURE : INITIAL :  1500 kg/ha ;       0 kg/ha IN     0 APPLICATIONS
 ENVIRONM. OPT. : DAYL=    0.00  SRAD=    0.00  TMAX=    0.00  TMIN=    0.00
                  RAIN=    0.00  CO2 =    0.00  DEW =    0.00  WIND=    0.00
 SIMULATION OPT : WATER   :Y  NITROGEN:Y  N-FIX:N  PHOSPH :N  PESTS  :N
                  PHOTO   :C  ET      :R  INFIL:S  HYDROL :R  SOM    :G
                  CO2 315ppm  NSWIT   :1  EVAP :S  SOIL   :2  STEMP  :D
 MANAGEMENT OPT : PLANTING:R  IRRIG   :N  FERT :R  RESIDUE:N  HARVEST:R
                  WEATHER :M  TILLAGE :Y

*SUMMARY OF SOIL AND GENETIC INPUT PARAMETERS

   SOIL LOWER UPPER   SAT  EXTR  INIT   ROOT   BULK     pH    NO3    NH4    ORG
  DEPTH LIMIT LIMIT    SW    SW    SW   DIST   DENS                          C
   cm   cm3/cm3    cm3/cm3    cm3/cm3         g/cm3         ugN/g  ugN/g     %
-------------------------------------------------------------------------------
  0-  5 0.108 0.236 0.391 0.128 0.223   1.00   1.29   6.20   3.10   0.30   3.19
  5- 15 0.118 0.246 0.395 0.128 0.234   0.86   1.31   6.28   3.10   0.30   2.72
 15- 20 0.123 0.252 0.396 0.129 0.249   0.80   1.32   6.31   3.10   0.30   2.49
 20- 30 0.133 0.262 0.399 0.129 0.249   0.70   1.34   6.37   3.10   0.30   2.06
 30- 40 0.138 0.267 0.400 0.129 0.269   0.63   1.36   6.41   3.10   0.30   1.81
 40- 50 0.142 0.271 0.402 0.129 0.269   0.57   1.37   6.44   3.10   0.30   1.57
 50- 60 0.147 0.276 0.403 0.129 0.269   0.50   1.39   6.48   3.10   0.30   1.32
 60- 70 0.147 0.276 0.403 0.129 0.268   0.47   1.40   6.52   3.10   0.30   1.18
 70- 90 0.146 0.275 0.402 0.129 0.268   0.41   1.44   6.58   3.10   0.30   0.91
 90-110 0.145 0.273 0.402 0.128 0.264   0.41   1.46   6.64   3.10   0.30   0.74
110-130 0.143 0.270 0.401 0.127 0.259   0.35   1.47   6.67   3.10   0.30   0.67
130-150 0.141 0.268 0.400 0.127 0.259   0.32   1.48   6.71   3.10   0.30   0.61
150-170 0.139 0.266 0.399 0.127 0.259   0.26   1.49   6.75   3.10   0.30   0.54
170-190 0.137 0.263 0.398 0.126 0.259   0.21   1.50   6.78   3.10   0.30   0.47
190-210 0.136 0.262 0.398 0.126 0.259   0.18   1.51   6.80   3.10   0.30   0.44

TOT-210  29.1  56.0  83.9  26.8  54.5  <--cm   -  kg/ha-->   93.5    9.1 310026
SOIL ALBEDO    : 0.10      EVAPORATION LIMIT : 6.00         MIN. FACTOR  : 1.00
RUNOFF CURVE # :75.00      DRAINAGE RATE     : 0.50         FERT. FACTOR : 1.00

 Wheat            CULTIVAR: AW0005-Bacanora 88        ECOTYPE: IB0003


*SIMULATED CROP AND SOIL STATUS AT MAIN DEVELOPMENT STAGES

 RUN NO.     1     1                       

        CROP GROWTH     BIOMASS         LEAF   CROP N     STRESS      STRESS                                           
   DATE  AGE STAGE        kg/ha    LAI   NUM  kg/ha  %   H2O  Nitr Phos1 Phos2  RSTG                                   
 ------  --- ----------   -----  -----  ----  ---  ---  ----  ----  ----  ----  ----                                   
 24 OCT    0 Fallow           0   0.00   0.0    0  0.0  0.00  0.00  0.00  0.00     8
 24 OCT    0 Sowing           0   0.00   0.0    0  0.0  0.00  0.00  0.00  0.00     8
 26 OCT    2 Germinate        0   0.00   0.0    0  0.0  0.00  0.00  0.00  0.00     9
  7 NOV   14 Emergence       10   0.02   0.0    1 10.6  0.00  0.00  0.00  0.00     1
  4 APR  162 End Juveni    1195   1.57   0.0   39  3.3  0.28  0.00  0.00  0.00     2
 17 MAY  205 End Veg       3361   3.15   0.0   58  1.7  0.89  0.00  0.00  0.00     3
  1 JUN  220 End Ear Gr    5004   2.68   0.0   75  1.5  0.94  0.00  0.00  0.00     4
 14 JUN  233 Beg Gr Fil    7405   2.27   0.0   91  1.2  0.92  0.00  0.00  0.00     5
 21 JUL  270 Maturity     11265   0.00   0.0  130  1.2  0.96  0.00  0.00  0.00     6
 22 JUL  271 Maturity     11265   0.00   0.0  130  1.2  0.71  0.00  0.00  0.00     7
  7 AUG  287 Harvest      11265   0.00   0.0  130  1.2  0.70  0.00  0.00  0.00     7


*MAIN GROWTH AND DEVELOPMENT VARIABLES

@     VARIABLE                                         SIMULATED     MEASURED
      --------                                         ---------     --------
      Anthesis day (dap)                                     220          -99
      Physiological maturity day (dap)                       271          -99
      Yield at harvest maturity (kg [dm]/ha)                5973         5423
      Number at maturity (no/m2)                           11881          -99
      Unit wt at maturity (g [dm]/unit)                     50.3          -99
      Number at maturity (no/unit)                          29.7          -99
      Tops weight at maturity (kg [dm]/ha)                 11265          -99
      By-product produced (stalk) at maturity (kg[dm]/ha       0          -99
      Leaf area index, maximum                              3.33          -99
      Harvest index at maturity                            0.530          -99
      Grain N at maturity (kg/ha)                            113          -99
      Tops N at maturity (kg/ha)                             130          -99
      Stem N at maturity (kg/ha)                               0          -99
      Grain N at maturity (%)                                1.9          -99
      Tops weight at anthesis (kg [dm]/ha)                     2          -99
      Tops N at anthesis (kg/ha)                              35          -99
      Leaf number per stem at maturity                      0.00          -99
      Emergence day (dap)                                     14          -99


*ENVIRONMENTAL AND STRESS FACTORS

 |-----Development Phase------|--------------------------------------Environment--------------------------------------|-----------------Stress-----------------|
                              |---------------Average--------------|-----Cumulative-----|--------Count of days--------|          (0=Min, 1=Max Stress)         |
                         Time  Temp  Temp  Temp Solar Photop                Evapo    Pot TMIN TMIN TMAX TMAX TMAX RAIN|----Water----|---Nitrogen--|-Phosphorus-|
                         Span   Max   Min  Mean   Rad  [day]    CO2   Rain  Trans     ET   <    <    >    >    >    >   Photo         Photo         Photo
                         days     C     C     C MJ/m2     hr    ppm     mm     mm    mm   0 C  2 C 30 C 32 C 34 C  0mm  synth Growth  synth Growth  synth Growth
----------------------------------------------------------------------------------------------------------------------------------------------------------------
 Emergence-End Juvenile   148   5.3  -1.8   1.8   5.6   9.50  314.9  169.0   96.2  118.4   85  115    0    0    0   41  0.233  0.269  0.002  0.005  0.000  0.000
 End Juvenil-Floral Init   43  13.4   3.0   8.2  14.8  13.96  314.9  137.0   42.5  108.1    4   15    0    0    0   13  0.825  0.884  0.000  0.000  0.000  0.000
 Floral Init-End Lf Grow   15  23.1   8.4  15.7  23.7  15.35  314.9    6.0   41.5   71.6    0    0    0    0    0    1  0.909  0.940  0.000  0.000  0.000  0.000
 End Lf Grth-Beg Grn Fil   13  22.5   9.1  15.8  21.3  15.74  314.9   18.0   60.8   56.6    0    0    0    0    0    4  0.879  0.920  0.000  0.000  0.000  0.000
 Grain Filling Phase       37  25.4  12.3  18.9  22.1  15.75  314.9   79.0  130.7  182.4    0    0    3    0    0   12  0.945  0.964  0.000  0.000  0.000  0.000
   
 Planting to Harvest      287  12.2   2.9   7.6  11.5  11.89  314.9  510.0  437.9  625.1   91  137    5    1    0   83  0.455  0.528  0.001  0.003  0.000  0.000
----------------------------------------------------------------------------------------------------------------------------------------------------------------


*Resource Productivity
 Growing season length: 287 days 

 Precipitation during growing season       510.0 mm[rain]
   Dry Matter Productivity                  2.21 kg[DM]/m3[rain]          =   22.1 kg[DM]/ha per mm[rain]
   Yield Productivity                       1.17 kg[grain yield]/m3[rain] =   11.7 kg[yield]/ha per mm[rain]

 Evapotranspiration during growing season  437.9 mm[ET]
   Dry Matter Productivity                  2.57 kg[DM]/m3[ET]            =   25.7 kg[DM]/ha per mm[ET]
   Yield Productivity                       1.36 kg[grain yield]/m3[ET]   =   13.6 kg[yield]/ha per mm[ET]

 Transpiration during growing season       223.9 mm[EP]
   Dry Matter Productivity                  5.03 kg[DM]/m3[EP]            =   50.3 kg[DM]/ha per mm[EP]
   Yield Productivity                       2.67 kg[grain yield]/m3[EP]   =   26.7 kg[yield]/ha per mm[EP]

 N applied during growing season            120. kg[N applied]/ha
   Dry Matter Productivity                  93.9 kg[DM]/kg[N applied]
   Yield Productivity                       49.8 kg[yield]/kg[N applied]

 N uptake during growing season              159 kg[N uptake]/ha
   Dry Matter Productivity                  70.8 kg[DM]/kg[N uptake]
   Yield Productivity                       37.6 kg[yield]/kg[N uptake]

--------------------------------------------------------------------------------------------------------------

                     Wheat YIELD :     5973 kg/ha    [Dry weight] 

**************************************************************************************************************

*DSSAT Cropping System Model Ver. 4.8.5.000 -release  NOV 27, 2025 15:48:48

*RUN   2        : 2                         WHAPS048 TUDU1701    2
 MODEL          : WHAPS048 - Wheat
 EXPERIMENT     : TUDU1701 WH
 DATA PATH      :
 TREATMENT  2   : 2                         WHAPS048


 CROP           : Wheat            CULTIVAR : Bacanora 88      ECOTYPE :IB0003
 STARTING DATE  : OCT 24   16
 PLANTING DATE  : OCT 24   16      PLANTS/m2 :   400.0    ROW SPACING :  12.cm
 HARVEST DATE   : AUG  7   17
 WEATHER        : TUDU     16
 SOIL           : DE02157980     TEXTURE : -99   - -99
 SOIL INIT COND : DEPTH:210cm EXTR. H2O:268.2mm  NO3: 93.5kg/ha  NH4:  9.1kg/ha
 WATER BALANCE  : RAINFED
 IRRIGATION     : NOT IRRIGATED
 NITROGEN BAL.  : SOIL-N & N-UPTAKE SIMULATION; NO N-FIXATION
 N-FERTILIZER   :      120 kg/ha IN     3 APPLICATIONS
 RESIDUE/MANURE : INITIAL :  1500 kg/ha ;       0 kg/ha IN     0 APPLICATIONS
 ENVIRONM. OPT. : DAYL=    0.00  SRAD=    0.00  TMAX=    0.00  TMIN=    0.00
                  RAIN=    0.00  CO2 =    0.00  DEW =    0.00  WIND=    0.00
 SIMULATION OPT : WATER   :Y  NITROGEN:Y  N-FIX:N  PHOSPH :N  PESTS  :N
                  PHOTO   :C  ET      :R  INFIL:S  HYDROL :R  SOM    :G
                  CO2 315ppm  NSWIT   :1  EVAP :S  SOIL   :2  STEMP  :D
 MANAGEMENT OPT : PLANTING:R  IRRIG   :N  FERT :R  RESIDUE:N  HARVEST:R
                  WEATHER :M  TILLAGE :Y

*SUMMARY OF SOIL AND GENETIC INPUT PARAMETERS

   SOIL LOWER UPPER   SAT  EXTR  INIT   ROOT   BULK     pH    NO3    NH4    ORG
  DEPTH LIMIT LIMIT    SW    SW    SW   DIST   DENS                          C
   cm   cm3/cm3    cm3/cm3    cm3/cm3         g/cm3         ugN/g  ugN/g     %
-------------------------------------------------------------------------------
  0-  5 0.108 0.236 0.391 0.128 0.223   1.00   1.29   6.20   3.10   0.30   3.19
  5- 15 0.118 0.246 0.395 0.128 0.234   0.86   1.31   6.28   3.10   0.30   2.72
 15- 20 0.123 0.252 0.396 0.129 0.249   0.80   1.32   6.31   3.10   0.30   2.49
 20- 30 0.133 0.262 0.399 0.129 0.249   0.70   1.34   6.37   3.10   0.30   2.06
 30- 40 0.138 0.267 0.400 0.129 0.269   0.63   1.36   6.41   3.10   0.30   1.81
 40- 50 0.142 0.271 0.402 0.129 0.269   0.57   1.37   6.44   3.10   0.30   1.57
 50- 60 0.147 0.276 0.403 0.129 0.269   0.50   1.39   6.48   3.10   0.30   1.32
 60- 70 0.147 0.276 0.403 0.129 0.268   0.47   1.40   6.52   3.10   0.30   1.18
 70- 90 0.146 0.275 0.402 0.129 0.268   0.41   1.44   6.58   3.10   0.30   0.91
 90-110 0.145 0.273 0.402 0.128 0.264   0.41   1.46   6.64   3.10   0.30   0.74
110-130 0.143 0.270 0.401 0.127 0.259   0.35   1.47   6.67   3.10   0.30   0.67
130-150 0.141 0.268 0.400 0.127 0.259   0.32   1.48   6.71   3.10   0.30   0.61
150-170 0.139 0.266 0.399 0.127 0.259   0.26   1.49   6.75   3.10   0.30   0.54
170-190 0.137 0.263 0.398 0.126 0.259   0.21   1.50   6.78   3.10   0.30   0.47
190-210 0.136 0.262 0.398 0.126 0.259   0.18   1.51   6.80   3.10   0.30   0.44

TOT-210  29.1  56.0  83.9  26.8  54.5  <--cm   -  kg/ha-->   93.5    9.1 310026
SOIL ALBEDO    : 0.10      EVAPORATION LIMIT : 6.00         MIN. FACTOR  : 1.00
RUNOFF CURVE # :75.00      DRAINAGE RATE     : 0.50         FERT. FACTOR : 1.00

 Wheat            CULTIVAR: AW0005-Bacanora 88        ECOTYPE: IB0003


*SIMULATED CROP AND SOIL STATUS AT MAIN DEVELOPMENT STAGES

 RUN NO.     2     2                       

        CROP GROWTH     BIOMASS         LEAF   CROP N     STRESS      STRESS                                           
   DATE  AGE STAGE        kg/ha    LAI   NUM  kg/ha  %   H2O  Nitr Phos1 Phos2  RSTG                                   
 ------  --- ----------   -----  -----  ----  ---  ---  ----  ----  ----  ----  ----                                   
 24 OCT    0 Fallow           0   0.00   0.0    0  0.0  0.00  0.00  0.00  0.00     8
 24 OCT    0 Sowing           0   0.00   0.0    0  0.0  0.00  0.00  0.00  0.00     8
 26 OCT    2 Germinate        0   0.00   0.0    0  0.0  0.00  0.00  0.00  0.00     9
  7 NOV   14 Emergence       10   0.02   0.0    1 10.6  0.00  0.00  0.00  0.00     1
  4 APR  162 End Juveni    1201   1.58   0.0   40  3.3  0.28  0.00  0.00  0.00     2
 17 MAY  205 End Veg       3389   3.18   0.0   59  1.7  0.88  0.00  0.00  0.00     3
  1 JUN  220 End Ear Gr    5100   2.71   0.0   77  1.5  0.94  0.00  0.00  0.00     4
 14 JUN  233 Beg Gr Fil    7514   2.30   0.0   93  1.2  0.92  0.00  0.00  0.00     5
 21 JUL  270 Maturity     11402   0.00   0.0  131  1.2  0.96  0.00  0.00  0.00     6
 22 JUL  271 Maturity     11402   0.00   0.0  131  1.2  0.70  0.00  0.00  0.00     7
  7 AUG  287 Harvest      11402   0.00   0.0  131  1.2  0.70  0.00  0.00  0.00     7


*MAIN GROWTH AND DEVELOPMENT VARIABLES

@     VARIABLE                                         SIMULATED     MEASURED
      --------                                         ---------     --------
      Anthesis day (dap)                                     220          -99
      Physiological maturity day (dap)                       271          -99
      Yield at harvest maturity (kg [dm]/ha)                6018         7219
      Number at maturity (no/m2)                           12098          -99
      Unit wt at maturity (g [dm]/unit)                     49.7          -99
      Number at maturity (no/unit)                          30.2          -99
      Tops weight at maturity (kg [dm]/ha)                 11402          -99
      By-product produced (stalk) at maturity (kg[dm]/ha       0          -99
      Leaf area index, maximum                              3.36          -99
      Harvest index at maturity                            0.528          -99
      Grain N at maturity (kg/ha)                            114          -99
      Tops N at maturity (kg/ha)                             131          -99
      Stem N at maturity (kg/ha)                               0          -99
      Grain N at maturity (%)                                1.9          -99
      Tops weight at anthesis (kg [dm]/ha)                     2          -99
      Tops N at anthesis (kg/ha)                              35          -99
      Leaf number per stem at maturity                      0.00          -99
      Emergence day (dap)                                     14          -99


*ENVIRONMENTAL AND STRESS FACTORS

 |-----Development Phase------|--------------------------------------Environment--------------------------------------|-----------------Stress-----------------|
                              |---------------Average--------------|-----Cumulative-----|--------Count of days--------|          (0=Min, 1=Max Stress)         |
                         Time  Temp  Temp  Temp Solar Photop                Evapo    Pot TMIN TMIN TMAX TMAX TMAX RAIN|----Water----|---Nitrogen--|-Phosphorus-|
                         Span   Max   Min  Mean   Rad  [day]    CO2   Rain  Trans     ET   <    <    >    >    >    >   Photo         Photo         Photo
                         days     C     C     C MJ/m2     hr    ppm     mm     mm    mm   0 C  2 C 30 C 32 C 34 C  0mm  synth Growth  synth Growth  synth Growth
----------------------------------------------------------------------------------------------------------------------------------------------------------------
 Emergence-End Juvenile   148   5.3  -1.8   1.8   5.6   9.50  314.9  169.0   96.2  118.4   85  115    0    0    0   41  0.233  0.269  0.002  0.005  0.000  0.000
 End Juvenil-Floral Init   43  13.4   3.0   8.2  14.8  13.96  314.9  137.0   42.6  108.0    4   15    0    0    0   13  0.824  0.883  0.000  0.000  0.000  0.000
 Floral Init-End Lf Grow   15  23.1   8.4  15.7  23.7  15.35  314.9    6.0   43.0   71.6    0    0    0    0    0    1  0.908  0.939  0.000  0.000  0.000  0.000
 End Lf Grth-Beg Grn Fil   13  22.5   9.1  15.8  21.3  15.74  314.9   18.0   60.9   56.6    0    0    0    0    0    4  0.882  0.922  0.000  0.000  0.000  0.000
 Grain Filling Phase       37  25.4  12.3  18.9  22.1  15.75  314.9   79.0  129.6  182.3    0    0    3    0    0   12  0.948  0.966  0.000  0.000  0.000  0.000
   
 Planting to Harvest      287  12.2   2.9   7.6  11.5  11.89  314.9  510.0  438.7  624.9   91  137    5    1    0   83  0.455  0.528  0.001  0.003  0.000  0.000
----------------------------------------------------------------------------------------------------------------------------------------------------------------


*Resource Productivity
 Growing season length: 287 days 

 Precipitation during growing season       510.0 mm[rain]
   Dry Matter Productivity                  2.24 kg[DM]/m3[rain]          =   22.4 kg[DM]/ha per mm[rain]
   Yield Productivity                       1.18 kg[grain yield]/m3[rain] =   11.8 kg[yield]/ha per mm[rain]

 Evapotranspiration during growing season  438.7 mm[ET]
   Dry Matter Productivity                  2.60 kg[DM]/m3[ET]            =   26.0 kg[DM]/ha per mm[ET]
   Yield Productivity                       1.37 kg[grain yield]/m3[ET]   =   13.7 kg[yield]/ha per mm[ET]

 Transpiration during growing season       225.5 mm[EP]
   Dry Matter Productivity                  5.06 kg[DM]/m3[EP]            =   50.6 kg[DM]/ha per mm[EP]
   Yield Productivity                       2.67 kg[grain yield]/m3[EP]   =   26.7 kg[yield]/ha per mm[EP]

 N applied during growing season            120. kg[N applied]/ha
   Dry Matter Productivity                  95.0 kg[DM]/kg[N applied]
   Yield Productivity                       50.2 kg[yield]/kg[N applied]

 N uptake during growing season              161 kg[N uptake]/ha
   Dry Matter Productivity                  70.8 kg[DM]/kg[N uptake]
   Yield Productivity                       37.4 kg[yield]/kg[N uptake]

--------------------------------------------------------------------------------------------------------------

                     Wheat YIELD :     6018 kg/ha    [Dry weight] 

**************************************************************************************************************

*DSSAT Cropping System Model Ver. 4.8.5.000 -release  NOV 27, 2025 15:48:48

*RUN   3        : 3                         WHAPS048 TUDU1701    3
 MODEL          : WHAPS048 - Wheat
 EXPERIMENT     : TUDU1701 WH
 DATA PATH      :
 TREATMENT  3   : 3                         WHAPS048


 CROP           : Wheat            CULTIVAR : Bacanora 88      ECOTYPE :IB0003
 STARTING DATE  : OCT 24   16
 PLANTING DATE  : OCT 24   16      PLANTS/m2 :   400.0    ROW SPACING :  12.cm
 HARVEST DATE   : AUG  7   17
 WEATHER        : TUDU     16
 SOIL           : DE02157980     TEXTURE : -99   - -99
 SOIL INIT COND : DEPTH:210cm EXTR. H2O:268.2mm  NO3: 93.5kg/ha  NH4:  9.1kg/ha
 WATER BALANCE  : RAINFED
 IRRIGATION     : NOT IRRIGATED
 NITROGEN BAL.  : SOIL-N & N-UPTAKE SIMULATION; NO N-FIXATION
 N-FERTILIZER   :      120 kg/ha IN     3 APPLICATIONS
 RESIDUE/MANURE : INITIAL :  1500 kg/ha ;       0 kg/ha IN     0 APPLICATIONS
 ENVIRONM. OPT. : DAYL=    0.00  SRAD=    0.00  TMAX=    0.00  TMIN=    0.00
                  RAIN=    0.00  CO2 =    0.00  DEW =    0.00  WIND=    0.00
 SIMULATION OPT : WATER   :Y  NITROGEN:Y  N-FIX:N  PHOSPH :N  PESTS  :N
                  PHOTO   :C  ET      :R  INFIL:S  HYDROL :R  SOM    :G
                  CO2 315ppm  NSWIT   :1  EVAP :S  SOIL   :2  STEMP  :D
 MANAGEMENT OPT : PLANTING:R  IRRIG   :N  FERT :R  RESIDUE:N  HARVEST:R
                  WEATHER :M  TILLAGE :Y

*SUMMARY OF SOIL AND GENETIC INPUT PARAMETERS

   SOIL LOWER UPPER   SAT  EXTR  INIT   ROOT   BULK     pH    NO3    NH4    ORG
  DEPTH LIMIT LIMIT    SW    SW    SW   DIST   DENS                          C
   cm   cm3/cm3    cm3/cm3    cm3/cm3         g/cm3         ugN/g  ugN/g     %
-------------------------------------------------------------------------------
  0-  5 0.108 0.236 0.391 0.128 0.223   1.00   1.29   6.20   3.10   0.30   3.19
  5- 15 0.118 0.246 0.395 0.128 0.234   0.86   1.31   6.28   3.10   0.30   2.72
 15- 20 0.123 0.252 0.396 0.129 0.249   0.80   1.32   6.31   3.10   0.30   2.49
 20- 30 0.133 0.262 0.399 0.129 0.249   0.70   1.34   6.37   3.10   0.30   2.06
 30- 40 0.138 0.267 0.400 0.129 0.269   0.63   1.36   6.41   3.10   0.30   1.81
 40- 50 0.142 0.271 0.402 0.129 0.269   0.57   1.37   6.44   3.10   0.30   1.57
 50- 60 0.147 0.276 0.403 0.129 0.269   0.50   1.39   6.48   3.10   0.30   1.32
 60- 70 0.147 0.276 0.403 0.129 0.268   0.47   1.40   6.52   3.10   0.30   1.18
 70- 90 0.146 0.275 0.402 0.129 0.268   0.41   1.44   6.58   3.10   0.30   0.91
 90-110 0.145 0.273 0.402 0.128 0.264   0.41   1.46   6.64   3.10   0.30   0.74
110-130 0.143 0.270 0.401 0.127 0.259   0.35   1.47   6.67   3.10   0.30   0.67
130-150 0.141 0.268 0.400 0.127 0.259   0.32   1.48   6.71   3.10   0.30   0.61
150-170 0.139 0.266 0.399 0.127 0.259   0.26   1.49   6.75   3.10   0.30   0.54
170-190 0.137 0.263 0.398 0.126 0.259   0.21   1.50   6.78   3.10   0.30   0.47
190-210 0.136 0.262 0.398 0.126 0.259   0.18   1.51   6.80   3.10   0.30   0.44

TOT-210  29.1  56.0  83.9  26.8  54.5  <--cm   -  kg/ha-->   93.5    9.1 310026
SOIL ALBEDO    : 0.10      EVAPORATION LIMIT : 6.00         MIN. FACTOR  : 1.00
RUNOFF CURVE # :75.00      DRAINAGE RATE     : 0.50         FERT. FACTOR : 1.00

 Wheat            CULTIVAR: AW0005-Bacanora 88        ECOTYPE: IB0003


*SIMULATED CROP AND SOIL STATUS AT MAIN DEVELOPMENT STAGES

 RUN NO.     3     3                       

        CROP GROWTH     BIOMASS         LEAF   CROP N     STRESS      STRESS                                           
   DATE  AGE STAGE        kg/ha    LAI   NUM  kg/ha  %   H2O  Nitr Phos1 Phos2  RSTG                                   
 ------  --- ----------   -----  -----  ----  ---  ---  ----  ----  ----  ----  ----                                   
 24 OCT    0 Fallow           0   0.00   0.0    0  0.0  0.00  0.00  0.00  0.00     8
 24 OCT    0 Sowing           0   0.00   0.0    0  0.0  0.00  0.00  0.00  0.00     8
 26 OCT    2 Germinate        0   0.00   0.0    0  0.0  0.00  0.00  0.00  0.00     9
  7 NOV   14 Emergence       10   0.02   0.0    1 10.6  0.00  0.00  0.00  0.00     1
  4 APR  162 End Juveni     469   0.59   0.0   12  2.5  0.28  0.00  0.00  0.00     2
 17 MAY  205 End Veg       1469   1.21   0.0   25  1.7  0.94  0.00  0.00  0.00     3
  1 JUN  220 End Ear Gr    2256   1.03   0.0   30  1.3  0.96  0.00  0.00  0.00     4
 14 JUN  233 Beg Gr Fil    3555   0.84   0.0   36  1.0  0.93  0.00  0.00  0.00     5
 21 JUL  270 Maturity      5474   0.00   0.0   64  1.2  0.91  0.00  0.00  0.00     6
 22 JUL  271 Maturity      5474   0.00   0.0   64  1.2  0.34  0.00  0.00  0.00     7
  7 AUG  287 Harvest       5474   0.00   0.0   64  1.2  0.34  0.00  0.00  0.00     7


*MAIN GROWTH AND DEVELOPMENT VARIABLES

@     VARIABLE                                         SIMULATED     MEASURED
      --------                                         ---------     --------
      Anthesis day (dap)                                     220          -99
      Physiological maturity day (dap)                       271          -99
      Yield at harvest maturity (kg [dm]/ha)                3063         5870
      Number at maturity (no/m2)                            6108          -99
      Unit wt at maturity (g [dm]/unit)                     50.2          -99
      Number at maturity (no/unit)                          15.3          -99
      Tops weight at maturity (kg [dm]/ha)                  5474          -99
      By-product produced (stalk) at maturity (kg[dm]/ha       0          -99
      Leaf area index, maximum                              1.29          -99
      Harvest index at maturity                            0.560          -99
      Grain N at maturity (kg/ha)                             57          -99
      Tops N at maturity (kg/ha)                              64          -99
      Stem N at maturity (kg/ha)                               0          -99
      Grain N at maturity (%)                                1.9          -99
      Tops weight at anthesis (kg [dm]/ha)                     2          -99
      Tops N at anthesis (kg/ha)                              35          -99
      Leaf number per stem at maturity                      0.00          -99
      Emergence day (dap)                                     14          -99


*ENVIRONMENTAL AND STRESS FACTORS

 |-----Development Phase------|--------------------------------------Environment--------------------------------------|-----------------Stress-----------------|
                              |---------------Average--------------|-----Cumulative-----|--------Count of days--------|          (0=Min, 1=Max Stress)         |
                         Time  Temp  Temp  Temp Solar Photop                Evapo    Pot TMIN TMIN TMAX TMAX TMAX RAIN|----Water----|---Nitrogen--|-Phosphorus-|
                         Span   Max   Min  Mean   Rad  [day]    CO2   Rain  Trans     ET   <    <    >    >    >    >   Photo         Photo         Photo
                         days     C     C     C MJ/m2     hr    ppm     mm     mm    mm   0 C  2 C 30 C 32 C 34 C  0mm  synth Growth  synth Growth  synth Growth
----------------------------------------------------------------------------------------------------------------------------------------------------------------
 Emergence-End Juvenile   148   5.3  -1.8   1.8   5.6   9.50  314.9  169.0   83.7  120.0   85  115    0    0    0   41  0.233  0.270  0.002  0.005  0.000  0.000
 End Juvenil-Floral Init   43  13.4   3.0   8.2  14.8  13.96  314.9  137.0   54.8  114.9    4   15    0    0    0   13  0.904  0.937  0.000  0.000  0.000  0.000
 Floral Init-End Lf Grow   15  23.1   8.4  15.7  23.7  15.35  314.9    6.0   31.5   75.5    0    0    0    0    0    1  0.944  0.963  0.000  0.000  0.000  0.000
 End Lf Grth-Beg Grn Fil   13  22.5   9.1  15.8  21.3  15.74  314.9   18.0   47.6   60.2    0    0    0    0    0    4  0.894  0.930  0.000  0.000  0.000  0.000
 Grain Filling Phase       37  25.4  12.3  18.9  22.1  15.75  314.9   79.0  113.0  192.6    0    0    3    0    0   12  0.893  0.929  0.000  0.000  0.000  0.000
   
 Planting to Harvest      287  12.2   2.9   7.6  11.5  11.89  314.9  510.0  402.0  651.5   91  137    5    1    0   83  0.461  0.512  0.001  0.003  0.000  0.000
----------------------------------------------------------------------------------------------------------------------------------------------------------------


*Resource Productivity
 Growing season length: 287 days 

 Precipitation during growing season       510.0 mm[rain]
   Dry Matter Productivity                  1.07 kg[DM]/m3[rain]          =   10.7 kg[DM]/ha per mm[rain]
   Yield Productivity                       0.60 kg[grain yield]/m3[rain] =    6.0 kg[yield]/ha per mm[rain]

 Evapotranspiration during growing season  402.0 mm[ET]
   Dry Matter Productivity                  1.36 kg[DM]/m3[ET]            =   13.6 kg[DM]/ha per mm[ET]
   Yield Productivity                       0.76 kg[grain yield]/m3[ET]   =    7.6 kg[yield]/ha per mm[ET]

 Transpiration during growing season       111.4 mm[EP]
   Dry Matter Productivity                  4.91 kg[DM]/m3[EP]            =   49.1 kg[DM]/ha per mm[EP]
   Yield Productivity                       2.75 kg[grain yield]/m3[EP]   =   27.5 kg[yield]/ha per mm[EP]

 N applied during growing season             40. kg[N applied]/ha
   Dry Matter Productivity                 136.8 kg[DM]/kg[N applied]
   Yield Productivity                       76.6 kg[yield]/kg[N applied]

 N uptake during growing season               78 kg[N uptake]/ha
   Dry Matter Productivity                  70.2 kg[DM]/kg[N uptake]
   Yield Productivity                       39.3 kg[yield]/kg[N uptake]

--------------------------------------------------------------------------------------------------------------

                     Wheat YIELD :     3063 kg/ha    [Dry weight] 

**************************************************************************************************************

*DSSAT Cropping System Model Ver. 4.8.5.000 -release  NOV 27, 2025 15:48:48

*RUN   4        : 4                         WHAPS048 TUDU1701    4
 MODEL          : WHAPS048 - Wheat
 EXPERIMENT     : TUDU1701 WH
 DATA PATH      :
 TREATMENT  4   : 4                         WHAPS048


 CROP           : Wheat            CULTIVAR : Bacanora 88      ECOTYPE :IB0003
 STARTING DATE  : OCT 24   16
 PLANTING DATE  : OCT 24   16      PLANTS/m2 :   400.0    ROW SPACING :  12.cm
 HARVEST DATE   : AUG  7   17
 WEATHER        : TUDU     16
 SOIL           : DE02157980     TEXTURE : -99   - -99
 SOIL INIT COND : DEPTH:210cm EXTR. H2O:268.2mm  NO3: 93.5kg/ha  NH4:  9.1kg/ha
 WATER BALANCE  : RAINFED
 IRRIGATION     : NOT IRRIGATED
 NITROGEN BAL.  : SOIL-N & N-UPTAKE SIMULATION; NO N-FIXATION
 N-FERTILIZER   :      120 kg/ha IN     3 APPLICATIONS
 RESIDUE/MANURE : INITIAL :  1500 kg/ha ;       0 kg/ha IN     0 APPLICATIONS
 ENVIRONM. OPT. : DAYL=    0.00  SRAD=    0.00  TMAX=    0.00  TMIN=    0.00
                  RAIN=    0.00  CO2 =    0.00  DEW =    0.00  WIND=    0.00
 SIMULATION OPT : WATER   :Y  NITROGEN:Y  N-FIX:N  PHOSPH :N  PESTS  :N
                  PHOTO   :C  ET      :R  INFIL:S  HYDROL :R  SOM    :G
                  CO2 315ppm  NSWIT   :1  EVAP :S  SOIL   :2  STEMP  :D
 MANAGEMENT OPT : PLANTING:R  IRRIG   :N  FERT :R  RESIDUE:N  HARVEST:R
                  WEATHER :M  TILLAGE :Y

*SUMMARY OF SOIL AND GENETIC INPUT PARAMETERS

   SOIL LOWER UPPER   SAT  EXTR  INIT   ROOT   BULK     pH    NO3    NH4    ORG
  DEPTH LIMIT LIMIT    SW    SW    SW   DIST   DENS                          C
   cm   cm3/cm3    cm3/cm3    cm3/cm3         g/cm3         ugN/g  ugN/g     %
-------------------------------------------------------------------------------
  0-  5 0.108 0.236 0.391 0.128 0.223   1.00   1.29   6.20   3.10   0.30   3.19
  5- 15 0.118 0.246 0.395 0.128 0.234   0.86   1.31   6.28   3.10   0.30   2.72
 15- 20 0.123 0.252 0.396 0.129 0.249   0.80   1.32   6.31   3.10   0.30   2.49
 20- 30 0.133 0.262 0.399 0.129 0.249   0.70   1.34   6.37   3.10   0.30   2.06
 30- 40 0.138 0.267 0.400 0.129 0.269   0.63   1.36   6.41   3.10   0.30   1.81
 40- 50 0.142 0.271 0.402 0.129 0.269   0.57   1.37   6.44   3.10   0.30   1.57
 50- 60 0.147 0.276 0.403 0.129 0.269   0.50   1.39   6.48   3.10   0.30   1.32
 60- 70 0.147 0.276 0.403 0.129 0.268   0.47   1.40   6.52   3.10   0.30   1.18
 70- 90 0.146 0.275 0.402 0.129 0.268   0.41   1.44   6.58   3.10   0.30   0.91
 90-110 0.145 0.273 0.402 0.128 0.264   0.41   1.46   6.64   3.10   0.30   0.74
110-130 0.143 0.270 0.401 0.127 0.259   0.35   1.47   6.67   3.10   0.30   0.67
130-150 0.141 0.268 0.400 0.127 0.259   0.32   1.48   6.71   3.10   0.30   0.61
150-170 0.139 0.266 0.399 0.127 0.259   0.26   1.49   6.75   3.10   0.30   0.54
170-190 0.137 0.263 0.398 0.126 0.259   0.21   1.50   6.78   3.10   0.30   0.47
190-210 0.136 0.262 0.398 0.126 0.259   0.18   1.51   6.80   3.10   0.30   0.44

TOT-210  29.1  56.0  83.9  26.8  54.5  <--cm   -  kg/ha-->   93.5    9.1 310026
SOIL ALBEDO    : 0.10      EVAPORATION LIMIT : 6.00         MIN. FACTOR  : 1.00
RUNOFF CURVE # :75.00      DRAINAGE RATE     : 0.50         FERT. FACTOR : 1.00

 Wheat            CULTIVAR: AW0005-Bacanora 88        ECOTYPE: IB0003


*SIMULATED CROP AND SOIL STATUS AT MAIN DEVELOPMENT STAGES

 RUN NO.     4     4                       

        CROP GROWTH     BIOMASS         LEAF   CROP N     STRESS      STRESS                                           
   DATE  AGE STAGE        kg/ha    LAI   NUM  kg/ha  %   H2O  Nitr Phos1 Phos2  RSTG                                   
 ------  --- ----------   -----  -----  ----  ---  ---  ----  ----  ----  ----  ----                                   
 24 OCT    0 Fallow           0   0.00   0.0    0  0.0  0.00  0.00  0.00  0.00     8
 24 OCT    0 Sowing           0   0.00   0.0    0  0.0  0.00  0.00  0.00  0.00     8
 26 OCT    2 Germinate        0   0.00   0.0    0  0.0  0.00  0.00  0.00  0.00     9
  7 NOV   14 Emergence       10   0.02   0.0    1 10.6  0.00  0.00  0.00  0.00     1
  4 APR  162 End Juveni    1202   1.58   0.0   40  3.3  0.28  0.00  0.00  0.00     2
 17 MAY  205 End Veg       3370   3.17   0.0   58  1.7  0.88  0.00  0.00  0.00     3
  1 JUN  220 End Ear Gr    5079   2.70   0.0   76  1.5  0.94  0.00  0.00  0.00     4
 14 JUN  233 Beg Gr Fil    7488   2.29   0.0   92  1.2  0.93  0.00  0.00  0.00     5
 21 JUL  270 Maturity     11367   0.00   0.0  131  1.2  0.96  0.00  0.00  0.00     6
 22 JUL  271 Maturity     11367   0.00   0.0  131  1.2  0.70  0.00  0.00  0.00     7
  7 AUG  287 Harvest      11367   0.00   0.0  131  1.2  0.70  0.00  0.00  0.00     7


*MAIN GROWTH AND DEVELOPMENT VARIABLES

@     VARIABLE                                         SIMULATED     MEASURED
      --------                                         ---------     --------
      Anthesis day (dap)                                     220          -99
      Physiological maturity day (dap)                       271          -99
      Yield at harvest maturity (kg [dm]/ha)                6004         8443
      Number at maturity (no/m2)                           12058          -99
      Unit wt at maturity (g [dm]/unit)                     49.8          -99
      Number at maturity (no/unit)                          30.1          -99
      Tops weight at maturity (kg [dm]/ha)                 11367          -99
      By-product produced (stalk) at maturity (kg[dm]/ha       0          -99
      Leaf area index, maximum                              3.35          -99
      Harvest index at maturity                            0.528          -99
      Grain N at maturity (kg/ha)                            114          -99
      Tops N at maturity (kg/ha)                             131          -99
      Stem N at maturity (kg/ha)                               0          -99
      Grain N at maturity (%)                                1.9          -99
      Tops weight at anthesis (kg [dm]/ha)                     2          -99
      Tops N at anthesis (kg/ha)                              35          -99
      Leaf number per stem at maturity                      0.00          -99
      Emergence day (dap)                                     14          -99


*ENVIRONMENTAL AND STRESS FACTORS

 |-----Development Phase------|--------------------------------------Environment--------------------------------------|-----------------Stress-----------------|
                              |---------------Average--------------|-----Cumulative-----|--------Count of days--------|          (0=Min, 1=Max Stress)         |
                         Time  Temp  Temp  Temp Solar Photop                Evapo    Pot TMIN TMIN TMAX TMAX TMAX RAIN|----Water----|---Nitrogen--|-Phosphorus-|
                         Span   Max   Min  Mean   Rad  [day]    CO2   Rain  Trans     ET   <    <    >    >    >    >   Photo         Photo         Photo
                         days     C     C     C MJ/m2     hr    ppm     mm     mm    mm   0 C  2 C 30 C 32 C 34 C  0mm  synth Growth  synth Growth  synth Growth
----------------------------------------------------------------------------------------------------------------------------------------------------------------
 Emergence-End Juvenile   148   5.3  -1.8   1.8   5.6   9.50  314.9  169.0   96.2  118.4   85  115    0    0    0   41  0.233  0.269  0.002  0.005  0.000  0.000
 End Juvenil-Floral Init   43  13.4   3.0   8.2  14.8  13.96  314.9  137.0   42.5  108.0    4   15    0    0    0   13  0.824  0.883  0.000  0.000  0.000  0.000
 Floral Init-End Lf Grow   15  23.1   8.4  15.7  23.7  15.35  314.9    6.0   43.0   71.6    0    0    0    0    0    1  0.908  0.939  0.000  0.000  0.000  0.000
 End Lf Grth-Beg Grn Fil   13  22.5   9.1  15.8  21.3  15.74  314.9   18.0   60.9   56.6    0    0    0    0    0    4  0.882  0.922  0.000  0.000  0.000  0.000
 Grain Filling Phase       37  25.4  12.3  18.9  22.1  15.75  314.9   79.0  129.5  182.3    0    0    3    0    0   12  0.948  0.966  0.000  0.000  0.000  0.000
   
 Planting to Harvest      287  12.2   2.9   7.6  11.5  11.89  314.9  510.0  438.4  625.0   91  137    5    1    0   83  0.455  0.528  0.001  0.003  0.000  0.000
----------------------------------------------------------------------------------------------------------------------------------------------------------------


*Resource Productivity
 Growing season length: 287 days 

 Precipitation during growing season       510.0 mm[rain]
   Dry Matter Productivity                  2.23 kg[DM]/m3[rain]          =   22.3 kg[DM]/ha per mm[rain]
   Yield Productivity                       1.18 kg[grain yield]/m3[rain] =   11.8 kg[yield]/ha per mm[rain]

 Evapotranspiration during growing season  438.4 mm[ET]
   Dry Matter Productivity                  2.59 kg[DM]/m3[ET]            =   25.9 kg[DM]/ha per mm[ET]
   Yield Productivity                       1.37 kg[grain yield]/m3[ET]   =   13.7 kg[yield]/ha per mm[ET]

 Transpiration during growing season       224.9 mm[EP]
   Dry Matter Productivity                  5.05 kg[DM]/m3[EP]            =   50.5 kg[DM]/ha per mm[EP]
   Yield Productivity                       2.67 kg[grain yield]/m3[EP]   =   26.7 kg[yield]/ha per mm[EP]

 N applied during growing season            120. kg[N applied]/ha
   Dry Matter Productivity                  94.7 kg[DM]/kg[N applied]
   Yield Productivity                       50.0 kg[yield]/kg[N applied]

 N uptake during growing season              160 kg[N uptake]/ha
   Dry Matter Productivity                  71.0 kg[DM]/kg[N uptake]
   Yield Productivity                       37.5 kg[yield]/kg[N uptake]

--------------------------------------------------------------------------------------------------------------

                     Wheat YIELD :     6004 kg/ha    [Dry weight] 

**************************************************************************************************************

*DSSAT Cropping System Model Ver. 4.8.5.000 -release  NOV 27, 2025 15:48:48

*RUN   5        : 5                         WHAPS048 TUDU1701    5
 MODEL          : WHAPS048 - Wheat
 EXPERIMENT     : TUDU1701 WH
 DATA PATH      :
 TREATMENT  5   : 5                         WHAPS048


 CROP           : Wheat            CULTIVAR : Bacanora 88      ECOTYPE :IB0003
 STARTING DATE  : OCT 24   16
 PLANTING DATE  : OCT 24   16      PLANTS/m2 :   400.0    ROW SPACING :  12.cm
 HARVEST DATE   : AUG  7   17
 WEATHER        : TUDU     16
 SOIL           : DE02157980     TEXTURE : -99   - -99
 SOIL INIT COND : DEPTH:210cm EXTR. H2O:268.2mm  NO3: 93.5kg/ha  NH4:  9.1kg/ha
 WATER BALANCE  : RAINFED
 IRRIGATION     : NOT IRRIGATED
 NITROGEN BAL.  : SOIL-N & N-UPTAKE SIMULATION; NO N-FIXATION
 N-FERTILIZER   :      120 kg/ha IN     3 APPLICATIONS
 RESIDUE/MANURE : INITIAL :  1500 kg/ha ;       0 kg/ha IN     0 APPLICATIONS
 ENVIRONM. OPT. : DAYL=    0.00  SRAD=    0.00  TMAX=    0.00  TMIN=    0.00
                  RAIN=    0.00  CO2 =    0.00  DEW =    0.00  WIND=    0.00
 SIMULATION OPT : WATER   :Y  NITROGEN:Y  N-FIX:N  PHOSPH :N  PESTS  :N
                  PHOTO   :C  ET      :R  INFIL:S  HYDROL :R  SOM    :G
                  CO2 315ppm  NSWIT   :1  EVAP :S  SOIL   :2  STEMP  :D
 MANAGEMENT OPT : PLANTING:R  IRRIG   :N  FERT :R  RESIDUE:N  HARVEST:R
                  WEATHER :M  TILLAGE :Y

*SUMMARY OF SOIL AND GENETIC INPUT PARAMETERS

   SOIL LOWER UPPER   SAT  EXTR  INIT   ROOT   BULK     pH    NO3    NH4    ORG
  DEPTH LIMIT LIMIT    SW    SW    SW   DIST   DENS                          C
   cm   cm3/cm3    cm3/cm3    cm3/cm3         g/cm3         ugN/g  ugN/g     %
-------------------------------------------------------------------------------
  0-  5 0.108 0.236 0.391 0.128 0.223   1.00   1.29   6.20   3.10   0.30   3.19
  5- 15 0.118 0.246 0.395 0.128 0.234   0.86   1.31   6.28   3.10   0.30   2.72
 15- 20 0.123 0.252 0.396 0.129 0.249   0.80   1.32   6.31   3.10   0.30   2.49
 20- 30 0.133 0.262 0.399 0.129 0.249   0.70   1.34   6.37   3.10   0.30   2.06
 30- 40 0.138 0.267 0.400 0.129 0.269   0.63   1.36   6.41   3.10   0.30   1.81
 40- 50 0.142 0.271 0.402 0.129 0.269   0.57   1.37   6.44   3.10   0.30   1.57
 50- 60 0.147 0.276 0.403 0.129 0.269   0.50   1.39   6.48   3.10   0.30   1.32
 60- 70 0.147 0.276 0.403 0.129 0.268   0.47   1.40   6.52   3.10   0.30   1.18
 70- 90 0.146 0.275 0.402 0.129 0.268   0.41   1.44   6.58   3.10   0.30   0.91
 90-110 0.145 0.273 0.402 0.128 0.264   0.41   1.46   6.64   3.10   0.30   0.74
110-130 0.143 0.270 0.401 0.127 0.259   0.35   1.47   6.67   3.10   0.30   0.67
130-150 0.141 0.268 0.400 0.127 0.259   0.32   1.48   6.71   3.10   0.30   0.61
150-170 0.139 0.266 0.399 0.127 0.259   0.26   1.49   6.75   3.10   0.30   0.54
170-190 0.137 0.263 0.398 0.126 0.259   0.21   1.50   6.78   3.10   0.30   0.47
190-210 0.136 0.262 0.398 0.126 0.259   0.18   1.51   6.80   3.10   0.30   0.44

TOT-210  29.1  56.0  83.9  26.8  54.5  <--cm   -  kg/ha-->   93.5    9.1 310026
SOIL ALBEDO    : 0.10      EVAPORATION LIMIT : 6.00         MIN. FACTOR  : 1.00
RUNOFF CURVE # :75.00      DRAINAGE RATE     : 0.50         FERT. FACTOR : 1.00

 Wheat            CULTIVAR: AW0005-Bacanora 88        ECOTYPE: IB0003


*SIMULATED CROP AND SOIL STATUS AT MAIN DEVELOPMENT STAGES

 RUN NO.     5     5                       

        CROP GROWTH     BIOMASS         LEAF   CROP N     STRESS      STRESS                                           
   DATE  AGE STAGE        kg/ha    LAI   NUM  kg/ha  %   H2O  Nitr Phos1 Phos2  RSTG                                   
 ------  --- ----------   -----  -----  ----  ---  ---  ----  ----  ----  ----  ----                                   
 24 OCT    0 Fallow           0   0.00   0.0    0  0.0  0.00  0.00  0.00  0.00     8
 24 OCT    0 Sowing           0   0.00   0.0    0  0.0  0.00  0.00  0.00  0.00     8
 26 OCT    2 Germinate        0   0.00   0.0    0  0.0  0.00  0.00  0.00  0.00     9
  7 NOV   14 Emergence       10   0.02   0.0    1 10.6  0.00  0.00  0.00  0.00     1
  4 APR  162 End Juveni    1251   1.65   0.0   44  3.5  0.28  0.00  0.00  0.00     2
 17 MAY  205 End Veg       4216   3.90   0.0   75  1.8  0.89  0.00  0.00  0.00     3
  1 JUN  220 End Ear Gr    6346   3.35   0.0   99  1.6  0.93  0.00  0.00  0.00     4
 14 JUN  233 Beg Gr Fil    8963   2.84   0.0  117  1.3  0.93  0.00  0.00  0.00     5
 21 JUL  270 Maturity     13237   0.00   0.0  137  1.0  0.94  0.00  0.00  0.00     6
 22 JUL  271 Maturity     13237   0.00   0.0  137  1.0  0.00  0.00  0.00  0.00     7
  7 AUG  287 Harvest      13237   0.00   0.0  137  1.0  0.00  0.00  0.00  0.00     7


*MAIN GROWTH AND DEVELOPMENT VARIABLES

@     VARIABLE                                         SIMULATED     MEASURED
      --------                                         ---------     --------
      Anthesis day (dap)                                     220          -99
      Physiological maturity day (dap)                       271          -99
      Yield at harvest maturity (kg [dm]/ha)                6629         9238
      Number at maturity (no/m2)                           14396          -99
      Unit wt at maturity (g [dm]/unit)                     46.0          -99
      Number at maturity (no/unit)                          36.0          -99
      Tops weight at maturity (kg [dm]/ha)                 13237          -99
      By-product produced (stalk) at maturity (kg[dm]/ha       0          -99
      Leaf area index, maximum                              4.07          -99
      Harvest index at maturity                            0.501          -99
      Grain N at maturity (kg/ha)                            117          -99
      Tops N at maturity (kg/ha)                             137          -99
      Stem N at maturity (kg/ha)                               0          -99
      Grain N at maturity (%)                                1.8          -99
      Tops weight at anthesis (kg [dm]/ha)                     2          -99
      Tops N at anthesis (kg/ha)                              35          -99
      Leaf number per stem at maturity                      0.00          -99
      Emergence day (dap)                                     14          -99


*ENVIRONMENTAL AND STRESS FACTORS

 |-----Development Phase------|--------------------------------------Environment--------------------------------------|-----------------Stress-----------------|
                              |---------------Average--------------|-----Cumulative-----|--------Count of days--------|          (0=Min, 1=Max Stress)         |
                         Time  Temp  Temp  Temp Solar Photop                Evapo    Pot TMIN TMIN TMAX TMAX TMAX RAIN|----Water----|---Nitrogen--|-Phosphorus-|
                         Span   Max   Min  Mean   Rad  [day]    CO2   Rain  Trans     ET   <    <    >    >    >    >   Photo         Photo         Photo
                         days     C     C     C MJ/m2     hr    ppm     mm     mm    mm   0 C  2 C 30 C 32 C 34 C  0mm  synth Growth  synth Growth  synth Growth
----------------------------------------------------------------------------------------------------------------------------------------------------------------
 Emergence-End Juvenile   148   5.3  -1.8   1.8   5.6   9.50  314.9  169.0   96.3  118.3   85  115    0    0    0   41  0.233  0.269  0.002  0.005  0.000  0.000
 End Juvenil-Floral Init   43  13.4   3.0   8.2  14.8  13.96  314.9  137.0   48.5  107.4    4   15    0    0    0   13  0.827  0.885  0.000  0.000  0.000  0.000
 Floral Init-End Lf Grow   15  23.1   8.4  15.7  23.7  15.35  314.9    6.0   50.8   71.0    0    0    0    0    0    1  0.894  0.930  0.000  0.000  0.000  0.000
 End Lf Grth-Beg Grn Fil   13  22.5   9.1  15.8  21.3  15.74  314.9   18.0   62.3   56.0    0    0    0    0    0    4  0.888  0.926  0.000  0.000  0.000  0.000
 Grain Filling Phase       37  25.4  12.3  18.9  22.1  15.75  314.9   79.0  123.9  180.3    0    0    3    0    0   12  0.951  0.968  0.000  0.000  0.000  0.000
   
 Planting to Harvest      287  12.2   2.9   7.6  11.5  11.89  314.9  510.0  448.1  621.2   91  137    5    1    0   83  0.454  0.487  0.001  0.003  0.000  0.000
----------------------------------------------------------------------------------------------------------------------------------------------------------------


*Resource Productivity
 Growing season length: 287 days 

 Precipitation during growing season       510.0 mm[rain]
   Dry Matter Productivity                  2.60 kg[DM]/m3[rain]          =   26.0 kg[DM]/ha per mm[rain]
   Yield Productivity                       1.30 kg[grain yield]/m3[rain] =   13.0 kg[yield]/ha per mm[rain]

 Evapotranspiration during growing season  448.1 mm[ET]
   Dry Matter Productivity                  2.95 kg[DM]/m3[ET]            =   29.5 kg[DM]/ha per mm[ET]
   Yield Productivity                       1.48 kg[grain yield]/m3[ET]   =   14.8 kg[yield]/ha per mm[ET]

 Transpiration during growing season       248.5 mm[EP]
   Dry Matter Productivity                  5.33 kg[DM]/m3[EP]            =   53.3 kg[DM]/ha per mm[EP]
   Yield Productivity                       2.67 kg[grain yield]/m3[EP]   =   26.7 kg[yield]/ha per mm[EP]

 N applied during growing season            120. kg[N applied]/ha
   Dry Matter Productivity                 110.3 kg[DM]/kg[N applied]
   Yield Productivity                       55.2 kg[yield]/kg[N applied]

 N uptake during growing season              165 kg[N uptake]/ha
   Dry Matter Productivity                  80.2 kg[DM]/kg[N uptake]
   Yield Productivity                       40.2 kg[yield]/kg[N uptake]

--------------------------------------------------------------------------------------------------------------

                     Wheat YIELD :     6629 kg/ha    [Dry weight] 

**************************************************************************************************************

*DSSAT Cropping System Model Ver. 4.8.5.000 -release  NOV 27, 2025 15:48:49

*RUN   6        : 6                         WHAPS048 TUDU1701    6
 MODEL          : WHAPS048 - Wheat
 EXPERIMENT     : TUDU1701 WH
 DATA PATH      :
 TREATMENT  6   : 6                         WHAPS048


 CROP           : Wheat            CULTIVAR : Bacanora 88      ECOTYPE :IB0003
 STARTING DATE  : OCT 24   16
 PLANTING DATE  : OCT 24   16      PLANTS/m2 :   400.0    ROW SPACING :  12.cm
 HARVEST DATE   : AUG  7   17
 WEATHER        : TUDU     16
 SOIL           : DE02157980     TEXTURE : -99   - -99
 SOIL INIT COND : DEPTH:210cm EXTR. H2O:268.2mm  NO3: 93.5kg/ha  NH4:  9.1kg/ha
 WATER BALANCE  : RAINFED
 IRRIGATION     : NOT IRRIGATED
 NITROGEN BAL.  : SOIL-N & N-UPTAKE SIMULATION; NO N-FIXATION
 N-FERTILIZER   :      120 kg/ha IN     3 APPLICATIONS
 RESIDUE/MANURE : INITIAL :  1500 kg/ha ;       0 kg/ha IN     0 APPLICATIONS
 ENVIRONM. OPT. : DAYL=    0.00  SRAD=    0.00  TMAX=    0.00  TMIN=    0.00
                  RAIN=    0.00  CO2 =    0.00  DEW =    0.00  WIND=    0.00
 SIMULATION OPT : WATER   :Y  NITROGEN:Y  N-FIX:N  PHOSPH :N  PESTS  :N
                  PHOTO   :C  ET      :R  INFIL:S  HYDROL :R  SOM    :G
                  CO2 315ppm  NSWIT   :1  EVAP :S  SOIL   :2  STEMP  :D
 MANAGEMENT OPT : PLANTING:R  IRRIG   :N  FERT :R  RESIDUE:N  HARVEST:R
                  WEATHER :M  TILLAGE :Y

*SUMMARY OF SOIL AND GENETIC INPUT PARAMETERS

   SOIL LOWER UPPER   SAT  EXTR  INIT   ROOT   BULK     pH    NO3    NH4    ORG
  DEPTH LIMIT LIMIT    SW    SW    SW   DIST   DENS                          C
   cm   cm3/cm3    cm3/cm3    cm3/cm3         g/cm3         ugN/g  ugN/g     %
-------------------------------------------------------------------------------
  0-  5 0.108 0.236 0.391 0.128 0.223   1.00   1.29   6.20   3.10   0.30   3.19
  5- 15 0.118 0.246 0.395 0.128 0.234   0.86   1.31   6.28   3.10   0.30   2.72
 15- 20 0.123 0.252 0.396 0.129 0.249   0.80   1.32   6.31   3.10   0.30   2.49
 20- 30 0.133 0.262 0.399 0.129 0.249   0.70   1.34   6.37   3.10   0.30   2.06
 30- 40 0.138 0.267 0.400 0.129 0.269   0.63   1.36   6.41   3.10   0.30   1.81
 40- 50 0.142 0.271 0.402 0.129 0.269   0.57   1.37   6.44   3.10   0.30   1.57
 50- 60 0.147 0.276 0.403 0.129 0.269   0.50   1.39   6.48   3.10   0.30   1.32
 60- 70 0.147 0.276 0.403 0.129 0.268   0.47   1.40   6.52   3.10   0.30   1.18
 70- 90 0.146 0.275 0.402 0.129 0.268   0.41   1.44   6.58   3.10   0.30   0.91
 90-110 0.145 0.273 0.402 0.128 0.264   0.41   1.46   6.64   3.10   0.30   0.74
110-130 0.143 0.270 0.401 0.127 0.259   0.35   1.47   6.67   3.10   0.30   0.67
130-150 0.141 0.268 0.400 0.127 0.259   0.32   1.48   6.71   3.10   0.30   0.61
150-170 0.139 0.266 0.399 0.127 0.259   0.26   1.49   6.75   3.10   0.30   0.54
170-190 0.137 0.263 0.398 0.126 0.259   0.21   1.50   6.78   3.10   0.30   0.47
190-210 0.136 0.262 0.398 0.126 0.259   0.18   1.51   6.80   3.10   0.30   0.44

TOT-210  29.1  56.0  83.9  26.8  54.5  <--cm   -  kg/ha-->   93.5    9.1 310026
SOIL ALBEDO    : 0.10      EVAPORATION LIMIT : 6.00         MIN. FACTOR  : 1.00
RUNOFF CURVE # :75.00      DRAINAGE RATE     : 0.50         FERT. FACTOR : 1.00

 Wheat            CULTIVAR: AW0005-Bacanora 88        ECOTYPE: IB0003


*SIMULATED CROP AND SOIL STATUS AT MAIN DEVELOPMENT STAGES

 RUN NO.     6     6                       

        CROP GROWTH     BIOMASS         LEAF   CROP N     STRESS      STRESS                                           
   DATE  AGE STAGE        kg/ha    LAI   NUM  kg/ha  %   H2O  Nitr Phos1 Phos2  RSTG                                   
 ------  --- ----------   -----  -----  ----  ---  ---  ----  ----  ----  ----  ----                                   
 24 OCT    0 Fallow           0   0.00   0.0    0  0.0  0.00  0.00  0.00  0.00     8
 24 OCT    0 Sowing           0   0.00   0.0    0  0.0  0.00  0.00  0.00  0.00     8
 26 OCT    2 Germinate        0   0.00   0.0    0  0.0  0.00  0.00  0.00  0.00     9
  7 NOV   14 Emergence       10   0.02   0.0    1 10.6  0.00  0.00  0.00  0.00     1
  4 APR  162 End Juveni    1199   1.58   0.0   39  3.3  0.28  0.00  0.00  0.00     2
 17 MAY  205 End Veg       3358   3.16   0.0   58  1.7  0.88  0.00  0.00  0.00     3
  1 JUN  220 End Ear Gr    5054   2.69   0.0   76  1.5  0.94  0.00  0.00  0.00     4
 14 JUN  233 Beg Gr Fil    7458   2.28   0.0   91  1.2  0.92  0.00  0.00  0.00     5
 21 JUL  270 Maturity     11328   0.00   0.0  130  1.1  0.96  0.00  0.00  0.00     6
 22 JUL  271 Maturity     11328   0.00   0.0  130  1.1  0.70  0.00  0.00  0.00     7
  7 AUG  287 Harvest      11328   0.00   0.0  130  1.1  0.70  0.00  0.00  0.00     7


*MAIN GROWTH AND DEVELOPMENT VARIABLES

@     VARIABLE                                         SIMULATED     MEASURED
      --------                                         ---------     --------
      Anthesis day (dap)                                     220          -99
      Physiological maturity day (dap)                       271          -99
      Yield at harvest maturity (kg [dm]/ha)                5989         7088
      Number at maturity (no/m2)                           12010          -99
      Unit wt at maturity (g [dm]/unit)                     49.9          -99
      Number at maturity (no/unit)                          30.0          -99
      Tops weight at maturity (kg [dm]/ha)                 11328          -99
      By-product produced (stalk) at maturity (kg[dm]/ha       0          -99
      Leaf area index, maximum                              3.33          -99
      Harvest index at maturity                            0.529          -99
      Grain N at maturity (kg/ha)                            113          -99
      Tops N at maturity (kg/ha)                             130          -99
      Stem N at maturity (kg/ha)                               0          -99
      Grain N at maturity (%)                                1.9          -99
      Tops weight at anthesis (kg [dm]/ha)                     2          -99
      Tops N at anthesis (kg/ha)                              35          -99
      Leaf number per stem at maturity                      0.00          -99
      Emergence day (dap)                                     14          -99


*ENVIRONMENTAL AND STRESS FACTORS

 |-----Development Phase------|--------------------------------------Environment--------------------------------------|-----------------Stress-----------------|
                              |---------------Average--------------|-----Cumulative-----|--------Count of days--------|          (0=Min, 1=Max Stress)         |
                         Time  Temp  Temp  Temp Solar Photop                Evapo    Pot TMIN TMIN TMAX TMAX TMAX RAIN|----Water----|---Nitrogen--|-Phosphorus-|
                         Span   Max   Min  Mean   Rad  [day]    CO2   Rain  Trans     ET   <    <    >    >    >    >   Photo         Photo         Photo
                         days     C     C     C MJ/m2     hr    ppm     mm     mm    mm   0 C  2 C 30 C 32 C 34 C  0mm  synth Growth  synth Growth  synth Growth
----------------------------------------------------------------------------------------------------------------------------------------------------------------
 Emergence-End Juvenile   148   5.3  -1.8   1.8   5.6   9.50  314.9  169.0   96.2  118.4   85  115    0    0    0   41  0.233  0.269  0.002  0.005  0.000  0.000
 End Juvenil-Floral Init   43  13.4   3.0   8.2  14.8  13.96  314.9  137.0   42.4  108.0    4   15    0    0    0   13  0.825  0.884  0.000  0.000  0.000  0.000
 Floral Init-End Lf Grow   15  23.1   8.4  15.7  23.7  15.35  314.9    6.0   42.8   71.6    0    0    0    0    0    1  0.908  0.939  0.000  0.000  0.000  0.000
 End Lf Grth-Beg Grn Fil   13  22.5   9.1  15.8  21.3  15.74  314.9   18.0   60.8   56.6    0    0    0    0    0    4  0.881  0.921  0.000  0.000  0.000  0.000
 Grain Filling Phase       37  25.4  12.3  18.9  22.1  15.75  314.9   79.0  129.8  182.4    0    0    3    0    0   12  0.948  0.966  0.000  0.000  0.000  0.000
   
 Planting to Harvest      287  12.2   2.9   7.6  11.5  11.89  314.9  510.0  438.4  625.1   91  137    5    1    0   83  0.455  0.528  0.001  0.003  0.000  0.000
----------------------------------------------------------------------------------------------------------------------------------------------------------------


*Resource Productivity
 Growing season length: 287 days 

 Precipitation during growing season       510.0 mm[rain]
   Dry Matter Productivity                  2.22 kg[DM]/m3[rain]          =   22.2 kg[DM]/ha per mm[rain]
   Yield Productivity                       1.17 kg[grain yield]/m3[rain] =   11.7 kg[yield]/ha per mm[rain]

 Evapotranspiration during growing season  438.4 mm[ET]
   Dry Matter Productivity                  2.58 kg[DM]/m3[ET]            =   25.8 kg[DM]/ha per mm[ET]
   Yield Productivity                       1.37 kg[grain yield]/m3[ET]   =   13.7 kg[yield]/ha per mm[ET]

 Transpiration during growing season       224.5 mm[EP]
   Dry Matter Productivity                  5.05 kg[DM]/m3[EP]            =   50.5 kg[DM]/ha per mm[EP]
   Yield Productivity                       2.67 kg[grain yield]/m3[EP]   =   26.7 kg[yield]/ha per mm[EP]

 N applied during growing season            120. kg[N applied]/ha
   Dry Matter Productivity                  94.4 kg[DM]/kg[N applied]
   Yield Productivity                       49.9 kg[yield]/kg[N applied]

 N uptake during growing season              159 kg[N uptake]/ha
   Dry Matter Productivity                  71.2 kg[DM]/kg[N uptake]
   Yield Productivity                       37.7 kg[yield]/kg[N uptake]

--------------------------------------------------------------------------------------------------------------

                     Wheat YIELD :     5989 kg/ha    [Dry weight] 

**************************************************************************************************************

*DSSAT Cropping System Model Ver. 4.8.5.000 -release  NOV 27, 2025 15:48:49

*RUN   7        : 7                         WHAPS048 TUDU1701    7
 MODEL          : WHAPS048 - Wheat
 EXPERIMENT     : TUDU1701 WH
 DATA PATH      :
 TREATMENT  7   : 7                         WHAPS048


 CROP           : Wheat            CULTIVAR : Bacanora 88      ECOTYPE :IB0003
 STARTING DATE  : OCT 24   16
 PLANTING DATE  : OCT 24   16      PLANTS/m2 :   400.0    ROW SPACING :  12.cm
 HARVEST DATE   : AUG  7   17
 WEATHER        : TUDU     16
 SOIL           : DE02157980     TEXTURE : -99   - -99
 SOIL INIT COND : DEPTH:210cm EXTR. H2O:268.2mm  NO3: 93.5kg/ha  NH4:  9.1kg/ha
 WATER BALANCE  : RAINFED
 IRRIGATION     : NOT IRRIGATED
 NITROGEN BAL.  : SOIL-N & N-UPTAKE SIMULATION; NO N-FIXATION
 N-FERTILIZER   :      120 kg/ha IN     3 APPLICATIONS
 RESIDUE/MANURE : INITIAL :  1500 kg/ha ;       0 kg/ha IN     0 APPLICATIONS
 ENVIRONM. OPT. : DAYL=    0.00  SRAD=    0.00  TMAX=    0.00  TMIN=    0.00
                  RAIN=    0.00  CO2 =    0.00  DEW =    0.00  WIND=    0.00
 SIMULATION OPT : WATER   :Y  NITROGEN:Y  N-FIX:N  PHOSPH :N  PESTS  :N
                  PHOTO   :C  ET      :R  INFIL:S  HYDROL :R  SOM    :G
                  CO2 315ppm  NSWIT   :1  EVAP :S  SOIL   :2  STEMP  :D
 MANAGEMENT OPT : PLANTING:R  IRRIG   :N  FERT :R  RESIDUE:N  HARVEST:R
                  WEATHER :M  TILLAGE :Y

*SUMMARY OF SOIL AND GENETIC INPUT PARAMETERS

   SOIL LOWER UPPER   SAT  EXTR  INIT   ROOT   BULK     pH    NO3    NH4    ORG
  DEPTH LIMIT LIMIT    SW    SW    SW   DIST   DENS                          C
   cm   cm3/cm3    cm3/cm3    cm3/cm3         g/cm3         ugN/g  ugN/g     %
-------------------------------------------------------------------------------
  0-  5 0.108 0.236 0.391 0.128 0.223   1.00   1.29   6.20   3.10   0.30   3.19
  5- 15 0.118 0.246 0.395 0.128 0.234   0.86   1.31   6.28   3.10   0.30   2.72
 15- 20 0.123 0.252 0.396 0.129 0.249   0.80   1.32   6.31   3.10   0.30   2.49
 20- 30 0.133 0.262 0.399 0.129 0.249   0.70   1.34   6.37   3.10   0.30   2.06
 30- 40 0.138 0.267 0.400 0.129 0.269   0.63   1.36   6.41   3.10   0.30   1.81
 40- 50 0.142 0.271 0.402 0.129 0.269   0.57   1.37   6.44   3.10   0.30   1.57
 50- 60 0.147 0.276 0.403 0.129 0.269   0.50   1.39   6.48   3.10   0.30   1.32
 60- 70 0.147 0.276 0.403 0.129 0.268   0.47   1.40   6.52   3.10   0.30   1.18
 70- 90 0.146 0.275 0.402 0.129 0.268   0.41   1.44   6.58   3.10   0.30   0.91
 90-110 0.145 0.273 0.402 0.128 0.264   0.41   1.46   6.64   3.10   0.30   0.74
110-130 0.143 0.270 0.401 0.127 0.259   0.35   1.47   6.67   3.10   0.30   0.67
130-150 0.141 0.268 0.400 0.127 0.259   0.32   1.48   6.71   3.10   0.30   0.61
150-170 0.139 0.266 0.399 0.127 0.259   0.26   1.49   6.75   3.10   0.30   0.54
170-190 0.137 0.263 0.398 0.126 0.259   0.21   1.50   6.78   3.10   0.30   0.47
190-210 0.136 0.262 0.398 0.126 0.259   0.18   1.51   6.80   3.10   0.30   0.44

TOT-210  29.1  56.0  83.9  26.8  54.5  <--cm   -  kg/ha-->   93.5    9.1 310026
SOIL ALBEDO    : 0.10      EVAPORATION LIMIT : 6.00         MIN. FACTOR  : 1.00
RUNOFF CURVE # :75.00      DRAINAGE RATE     : 0.50         FERT. FACTOR : 1.00

 Wheat            CULTIVAR: AW0005-Bacanora 88        ECOTYPE: IB0003


*SIMULATED CROP AND SOIL STATUS AT MAIN DEVELOPMENT STAGES

 RUN NO.     7     7                       

        CROP GROWTH     BIOMASS         LEAF   CROP N     STRESS      STRESS                                           
   DATE  AGE STAGE        kg/ha    LAI   NUM  kg/ha  %   H2O  Nitr Phos1 Phos2  RSTG                                   
 ------  --- ----------   -----  -----  ----  ---  ---  ----  ----  ----  ----  ----                                   
 24 OCT    0 Fallow           0   0.00   0.0    0  0.0  0.00  0.00  0.00  0.00     8
 24 OCT    0 Sowing           0   0.00   0.0    0  0.0  0.00  0.00  0.00  0.00     8
 26 OCT    2 Germinate        0   0.00   0.0    0  0.0  0.00  0.00  0.00  0.00     9
  7 NOV   14 Emergence       10   0.02   0.0    1 10.6  0.00  0.00  0.00  0.00     1
  4 APR  162 End Juveni    1259   1.66   0.0   45  3.6  0.28  0.00  0.00  0.00     2
 17 MAY  205 End Veg       4225   3.92   0.0   75  1.8  0.89  0.00  0.00  0.00     3
  1 JUN  220 End Ear Gr    6399   3.37   0.0   99  1.5  0.93  0.00  0.00  0.00     4
 14 JUN  233 Beg Gr Fil    9021   2.86   0.0  110  1.2  0.93  0.00  0.00  0.00     5
 21 JUL  270 Maturity     13291   0.00   0.0  140  1.1  0.94  0.00  0.00  0.00     6
 22 JUL  271 Maturity     13291   0.00   0.0  140  1.1  0.00  0.00  0.00  0.00     7
  7 AUG  287 Harvest      13291   0.00   0.0  140  1.1  0.00  0.00  0.00  0.00     7


*MAIN GROWTH AND DEVELOPMENT VARIABLES

@     VARIABLE                                         SIMULATED     MEASURED
      --------                                         ---------     --------
      Anthesis day (dap)                                     220          -99
      Physiological maturity day (dap)                       271          -99
      Yield at harvest maturity (kg [dm]/ha)                6632         7462
      Number at maturity (no/m2)                           14508          -99
      Unit wt at maturity (g [dm]/unit)                     45.7          -99
      Number at maturity (no/unit)                          36.3          -99
      Tops weight at maturity (kg [dm]/ha)                 13291          -99
      By-product produced (stalk) at maturity (kg[dm]/ha       0          -99
      Leaf area index, maximum                              4.08          -99
      Harvest index at maturity                            0.499          -99
      Grain N at maturity (kg/ha)                            120          -99
      Tops N at maturity (kg/ha)                             140          -99
      Stem N at maturity (kg/ha)                               0          -99
      Grain N at maturity (%)                                1.8          -99
      Tops weight at anthesis (kg [dm]/ha)                     2          -99
      Tops N at anthesis (kg/ha)                              35          -99
      Leaf number per stem at maturity                      0.00          -99
      Emergence day (dap)                                     14          -99


*ENVIRONMENTAL AND STRESS FACTORS

 |-----Development Phase------|--------------------------------------Environment--------------------------------------|-----------------Stress-----------------|
                              |---------------Average--------------|-----Cumulative-----|--------Count of days--------|          (0=Min, 1=Max Stress)         |
                         Time  Temp  Temp  Temp Solar Photop                Evapo    Pot TMIN TMIN TMAX TMAX TMAX RAIN|----Water----|---Nitrogen--|-Phosphorus-|
                         Span   Max   Min  Mean   Rad  [day]    CO2   Rain  Trans     ET   <    <    >    >    >    >   Photo         Photo         Photo
                         days     C     C     C MJ/m2     hr    ppm     mm     mm    mm   0 C  2 C 30 C 32 C 34 C  0mm  synth Growth  synth Growth  synth Growth
----------------------------------------------------------------------------------------------------------------------------------------------------------------
 Emergence-End Juvenile   148   5.3  -1.8   1.8   5.6   9.50  314.9  169.0   96.3  118.3   85  115    0    0    0   41  0.233  0.269  0.002  0.005  0.000  0.000
 End Juvenil-Floral Init   43  13.4   3.0   8.2  14.8  13.96  314.9  137.0   48.6  107.4    4   15    0    0    0   13  0.828  0.886  0.000  0.000  0.000  0.000
 Floral Init-End Lf Grow   15  23.1   8.4  15.7  23.7  15.35  314.9    6.0   51.7   71.0    0    0    0    0    0    1  0.894  0.930  0.000  0.000  0.000  0.000
 End Lf Grth-Beg Grn Fil   13  22.5   9.1  15.8  21.3  15.74  314.9   18.0   62.3   56.0    0    0    0    0    0    4  0.891  0.928  0.000  0.000  0.000  0.000
 Grain Filling Phase       37  25.4  12.3  18.9  22.1  15.75  314.9   79.0  123.8  180.3    0    0    3    0    0   12  0.952  0.968  0.000  0.000  0.000  0.000
   
 Planting to Harvest      287  12.2   2.9   7.6  11.5  11.89  314.9  510.0  449.0  621.1   91  137    5    1    0   83  0.454  0.487  0.001  0.003  0.000  0.000
----------------------------------------------------------------------------------------------------------------------------------------------------------------


*Resource Productivity
 Growing season length: 287 days 

 Precipitation during growing season       510.0 mm[rain]
   Dry Matter Productivity                  2.61 kg[DM]/m3[rain]          =   26.1 kg[DM]/ha per mm[rain]
   Yield Productivity                       1.30 kg[grain yield]/m3[rain] =   13.0 kg[yield]/ha per mm[rain]

 Evapotranspiration during growing season  449.0 mm[ET]
   Dry Matter Productivity                  2.96 kg[DM]/m3[ET]            =   29.6 kg[DM]/ha per mm[ET]
   Yield Productivity                       1.48 kg[grain yield]/m3[ET]   =   14.8 kg[yield]/ha per mm[ET]

 Transpiration during growing season       249.8 mm[EP]
   Dry Matter Productivity                  5.32 kg[DM]/m3[EP]            =   53.2 kg[DM]/ha per mm[EP]
   Yield Productivity                       2.66 kg[grain yield]/m3[EP]   =   26.6 kg[yield]/ha per mm[EP]

 N applied during growing season            120. kg[N applied]/ha
   Dry Matter Productivity                 110.8 kg[DM]/kg[N applied]
   Yield Productivity                       55.3 kg[yield]/kg[N applied]

 N uptake during growing season              167 kg[N uptake]/ha
   Dry Matter Productivity                  79.6 kg[DM]/kg[N uptake]
   Yield Productivity                       39.7 kg[yield]/kg[N uptake]

--------------------------------------------------------------------------------------------------------------

                     Wheat YIELD :     6632 kg/ha    [Dry weight] 

**************************************************************************************************************

*DSSAT Cropping System Model Ver. 4.8.5.000 -release  NOV 27, 2025 15:48:49

*RUN   8        : 8                         WHAPS048 TUDU1701    8
 MODEL          : WHAPS048 - Wheat
 EXPERIMENT     : TUDU1701 WH
 DATA PATH      :
 TREATMENT  8   : 8                         WHAPS048


 CROP           : Wheat            CULTIVAR : Bacanora 88      ECOTYPE :IB0003
 STARTING DATE  : OCT 24   16
 PLANTING DATE  : OCT 24   16      PLANTS/m2 :   400.0    ROW SPACING :  12.cm
 HARVEST DATE   : AUG  7   17
 WEATHER        : TUDU     16
 SOIL           : DE02157980     TEXTURE : -99   - -99
 SOIL INIT COND : DEPTH:210cm EXTR. H2O:268.2mm  NO3: 93.5kg/ha  NH4:  9.1kg/ha
 WATER BALANCE  : RAINFED
 IRRIGATION     : NOT IRRIGATED
 NITROGEN BAL.  : SOIL-N & N-UPTAKE SIMULATION; NO N-FIXATION
 N-FERTILIZER   :      180 kg/ha IN     3 APPLICATIONS
 RESIDUE/MANURE : INITIAL :  1500 kg/ha ;       0 kg/ha IN     0 APPLICATIONS
 ENVIRONM. OPT. : DAYL=    0.00  SRAD=    0.00  TMAX=    0.00  TMIN=    0.00
                  RAIN=    0.00  CO2 =    0.00  DEW =    0.00  WIND=    0.00
 SIMULATION OPT : WATER   :Y  NITROGEN:Y  N-FIX:N  PHOSPH :N  PESTS  :N
                  PHOTO   :C  ET      :R  INFIL:S  HYDROL :R  SOM    :G
                  CO2 315ppm  NSWIT   :1  EVAP :S  SOIL   :2  STEMP  :D
 MANAGEMENT OPT : PLANTING:R  IRRIG   :N  FERT :R  RESIDUE:N  HARVEST:R
                  WEATHER :M  TILLAGE :Y

*SUMMARY OF SOIL AND GENETIC INPUT PARAMETERS

   SOIL LOWER UPPER   SAT  EXTR  INIT   ROOT   BULK     pH    NO3    NH4    ORG
  DEPTH LIMIT LIMIT    SW    SW    SW   DIST   DENS                          C
   cm   cm3/cm3    cm3/cm3    cm3/cm3         g/cm3         ugN/g  ugN/g     %
-------------------------------------------------------------------------------
  0-  5 0.108 0.236 0.391 0.128 0.223   1.00   1.29   6.20   3.10   0.30   3.19
  5- 15 0.118 0.246 0.395 0.128 0.234   0.86   1.31   6.28   3.10   0.30   2.72
 15- 20 0.123 0.252 0.396 0.129 0.249   0.80   1.32   6.31   3.10   0.30   2.49
 20- 30 0.133 0.262 0.399 0.129 0.249   0.70   1.34   6.37   3.10   0.30   2.06
 30- 40 0.138 0.267 0.400 0.129 0.269   0.63   1.36   6.41   3.10   0.30   1.81
 40- 50 0.142 0.271 0.402 0.129 0.269   0.57   1.37   6.44   3.10   0.30   1.57
 50- 60 0.147 0.276 0.403 0.129 0.269   0.50   1.39   6.48   3.10   0.30   1.32
 60- 70 0.147 0.276 0.403 0.129 0.268   0.47   1.40   6.52   3.10   0.30   1.18
 70- 90 0.146 0.275 0.402 0.129 0.268   0.41   1.44   6.58   3.10   0.30   0.91
 90-110 0.145 0.273 0.402 0.128 0.264   0.41   1.46   6.64   3.10   0.30   0.74
110-130 0.143 0.270 0.401 0.127 0.259   0.35   1.47   6.67   3.10   0.30   0.67
130-150 0.141 0.268 0.400 0.127 0.259   0.32   1.48   6.71   3.10   0.30   0.61
150-170 0.139 0.266 0.399 0.127 0.259   0.26   1.49   6.75   3.10   0.30   0.54
170-190 0.137 0.263 0.398 0.126 0.259   0.21   1.50   6.78   3.10   0.30   0.47
190-210 0.136 0.262 0.398 0.126 0.259   0.18   1.51   6.80   3.10   0.30   0.44

TOT-210  29.1  56.0  83.9  26.8  54.5  <--cm   -  kg/ha-->   93.5    9.1 310026
SOIL ALBEDO    : 0.10      EVAPORATION LIMIT : 6.00         MIN. FACTOR  : 1.00
RUNOFF CURVE # :75.00      DRAINAGE RATE     : 0.50         FERT. FACTOR : 1.00

 Wheat            CULTIVAR: AW0005-Bacanora 88        ECOTYPE: IB0003


*SIMULATED CROP AND SOIL STATUS AT MAIN DEVELOPMENT STAGES

 RUN NO.     8     8                       

        CROP GROWTH     BIOMASS         LEAF   CROP N     STRESS      STRESS                                           
   DATE  AGE STAGE        kg/ha    LAI   NUM  kg/ha  %   H2O  Nitr Phos1 Phos2  RSTG                                   
 ------  --- ----------   -----  -----  ----  ---  ---  ----  ----  ----  ----  ----                                   
 24 OCT    0 Fallow           0   0.00   0.0    0  0.0  0.00  0.00  0.00  0.00     8
 24 OCT    0 Sowing           0   0.00   0.0    0  0.0  0.00  0.00  0.00  0.00     8
 26 OCT    2 Germinate        0   0.00   0.0    0  0.0  0.00  0.00  0.00  0.00     9
  7 NOV   14 Emergence       10   0.02   0.0    1 10.6  0.00  0.00  0.00  0.00     1
  4 APR  162 End Juveni    1287   1.70   0.0   48  3.7  0.28  0.00  0.00  0.00     2
 17 MAY  205 End Veg       5042   4.60   0.0   92  1.8  0.89  0.00  0.00  0.00     3
  1 JUN  220 End Ear Gr    7519   3.98   0.0  119  1.6  0.92  0.00  0.00  0.00     4
 14 JUN  233 Beg Gr Fil   10273   3.37   0.0  137  1.3  0.93  0.00  0.00  0.00     5
 21 JUL  270 Maturity     14824   0.00   0.0  175  1.2  0.96  0.00  0.00  0.00     6
 22 JUL  271 Maturity     14824   0.00   0.0  175  1.2  0.71  0.00  0.00  0.00     7
  7 AUG  287 Harvest      14824   0.00   0.0  175  1.2  0.71  0.00  0.00  0.00     7


*MAIN GROWTH AND DEVELOPMENT VARIABLES

@     VARIABLE                                         SIMULATED     MEASURED
      --------                                         ---------     --------
      Anthesis day (dap)                                     220          -99
      Physiological maturity day (dap)                       271          -99
      Yield at harvest maturity (kg [dm]/ha)                7076         8381
      Number at maturity (no/m2)                           16407          -99
      Unit wt at maturity (g [dm]/unit)                     43.1          -99
      Number at maturity (no/unit)                          41.0          -99
      Tops weight at maturity (kg [dm]/ha)                 14824          -99
      By-product produced (stalk) at maturity (kg[dm]/ha       0          -99
      Leaf area index, maximum                              4.74          -99
      Harvest index at maturity                            0.477          -99
      Grain N at maturity (kg/ha)                            150          -99
      Tops N at maturity (kg/ha)                             175          -99
      Stem N at maturity (kg/ha)                               0          -99
      Grain N at maturity (%)                                2.1          -99
      Tops weight at anthesis (kg [dm]/ha)                     2          -99
      Tops N at anthesis (kg/ha)                              35          -99
      Leaf number per stem at maturity                      0.00          -99
      Emergence day (dap)                                     14          -99


*ENVIRONMENTAL AND STRESS FACTORS

 |-----Development Phase------|--------------------------------------Environment--------------------------------------|-----------------Stress-----------------|
                              |---------------Average--------------|-----Cumulative-----|--------Count of days--------|          (0=Min, 1=Max Stress)         |
                         Time  Temp  Temp  Temp Solar Photop                Evapo    Pot TMIN TMIN TMAX TMAX TMAX RAIN|----Water----|---Nitrogen--|-Phosphorus-|
                         Span   Max   Min  Mean   Rad  [day]    CO2   Rain  Trans     ET   <    <    >    >    >    >   Photo         Photo         Photo
                         days     C     C     C MJ/m2     hr    ppm     mm     mm    mm   0 C  2 C 30 C 32 C 34 C  0mm  synth Growth  synth Growth  synth Growth
----------------------------------------------------------------------------------------------------------------------------------------------------------------
 Emergence-End Juvenile   148   5.3  -1.8   1.8   5.6   9.50  314.9  169.0   96.4  118.3   85  115    0    0    0   41  0.233  0.269  0.002  0.005  0.000  0.000
 End Juvenil-Floral Init   43  13.4   3.0   8.2  14.8  13.96  314.9  137.0   56.0  107.0    4   15    0    0    0   13  0.828  0.886  0.000  0.000  0.000  0.000
 Floral Init-End Lf Grow   15  23.1   8.4  15.7  23.7  15.35  314.9    6.0   57.5   70.7    0    0    0    0    0    1  0.883  0.923  0.000  0.000  0.000  0.000
 End Lf Grth-Beg Grn Fil   13  22.5   9.1  15.8  21.3  15.74  314.9   18.0   63.1   55.6    0    0    0    0    0    4  0.893  0.929  0.000  0.000  0.000  0.000
 Grain Filling Phase       37  25.4  12.3  18.9  22.1  15.75  314.9   79.0  118.1  178.8    0    0    3    0    0   12  0.955  0.971  0.000  0.000  0.000  0.000
   
 Planting to Harvest      287  12.2   2.9   7.6  11.5  11.89  314.9  510.0  457.4  618.5   91  137    5    1    0   83  0.456  0.529  0.001  0.003  0.000  0.000
----------------------------------------------------------------------------------------------------------------------------------------------------------------


*Resource Productivity
 Growing season length: 287 days 

 Precipitation during growing season       510.0 mm[rain]
   Dry Matter Productivity                  2.91 kg[DM]/m3[rain]          =   29.1 kg[DM]/ha per mm[rain]
   Yield Productivity                       1.39 kg[grain yield]/m3[rain] =   13.9 kg[yield]/ha per mm[rain]

 Evapotranspiration during growing season  457.4 mm[ET]
   Dry Matter Productivity                  3.24 kg[DM]/m3[ET]            =   32.4 kg[DM]/ha per mm[ET]
   Yield Productivity                       1.55 kg[grain yield]/m3[ET]   =   15.5 kg[yield]/ha per mm[ET]

 Transpiration during growing season       267.7 mm[EP]
   Dry Matter Productivity                  5.54 kg[DM]/m3[EP]            =   55.4 kg[DM]/ha per mm[EP]
   Yield Productivity                       2.64 kg[grain yield]/m3[EP]   =   26.4 kg[yield]/ha per mm[EP]

 N applied during growing season            180. kg[N applied]/ha
   Dry Matter Productivity                  82.4 kg[DM]/kg[N applied]
   Yield Productivity                       39.3 kg[yield]/kg[N applied]

 N uptake during growing season              215 kg[N uptake]/ha
   Dry Matter Productivity                  69.0 kg[DM]/kg[N uptake]
   Yield Productivity                       32.9 kg[yield]/kg[N uptake]

--------------------------------------------------------------------------------------------------------------

                     Wheat YIELD :     7076 kg/ha    [Dry weight] 

**************************************************************************************************************

[...]

                     Wheat YIELD :     7052 kg/ha    [Dry weight] 

**************************************************************************************************************

*DSSAT Cropping System Model Ver. 4.8.5.000 -release  NOV 27, 2025 15:48:51

*RUN  14        : 14                        WHAPS048 TUDU1701   14
 MODEL          : WHAPS048 - Wheat
 EXPERIMENT     : TUDU1701 WH
 DATA PATH      :
 TREATMENT 14   : 14                        WHAPS048


 CROP           : Wheat            CULTIVAR : Bacanora 88      ECOTYPE :IB0003
 STARTING DATE  : OCT 24   16
 PLANTING DATE  : OCT 24   16      PLANTS/m2 :   400.0    ROW SPACING :  12.cm
 HARVEST DATE   : AUG  7   17
 WEATHER        : TUDU     16
 SOIL           : DE02157980     TEXTURE : -99   - -99
 SOIL INIT COND : DEPTH:210cm EXTR. H2O:268.2mm  NO3: 93.5kg/ha  NH4:  9.1kg/ha
 WATER BALANCE  : RAINFED
 IRRIGATION     : NOT IRRIGATED
 NITROGEN BAL.  : SOIL-N & N-UPTAKE SIMULATION; NO N-FIXATION
 N-FERTILIZER   :      180 kg/ha IN     3 APPLICATIONS
 RESIDUE/MANURE : INITIAL :  1500 kg/ha ;       0 kg/ha IN     0 APPLICATIONS
 ENVIRONM. OPT. : DAYL=    0.00  SRAD=    0.00  TMAX=    0.00  TMIN=    0.00
                  RAIN=    0.00  CO2 =    0.00  DEW =    0.00  WIND=    0.00
 SIMULATION OPT : WATER   :Y  NITROGEN:Y  N-FIX:N  PHOSPH :N  PESTS  :N
                  PHOTO   :C  ET      :R  INFIL:S  HYDROL :R  SOM    :G
                  CO2 315ppm  NSWIT   :1  EVAP :S  SOIL   :2  STEMP  :D
 MANAGEMENT OPT : PLANTING:R  IRRIG   :N  FERT :R  RESIDUE:N  HARVEST:R
                  WEATHER :M  TILLAGE :Y

*SUMMARY OF SOIL AND GENETIC INPUT PARAMETERS

   SOIL LOWER UPPER   SAT  EXTR  INIT   ROOT   BULK     pH    NO3    NH4    ORG
  DEPTH LIMIT LIMIT    SW    SW    SW   DIST   DENS                          C
   cm   cm3/cm3    cm3/cm3    cm3/cm3         g/cm3         ugN/g  ugN/g     %
-------------------------------------------------------------------------------
  0-  5 0.108 0.236 0.391 0.128 0.223   1.00   1.29   6.20   3.10   0.30   3.19
  5- 15 0.118 0.246 0.395 0.128 0.234   0.86   1.31   6.28   3.10   0.30   2.72
 15- 20 0.123 0.252 0.396 0.129 0.249   0.80   1.32   6.31   3.10   0.30   2.49
 20- 30 0.133 0.262 0.399 0.129 0.249   0.70   1.34   6.37   3.10   0.30   2.06
 30- 40 0.138 0.267 0.400 0.129 0.269   0.63   1.36   6.41   3.10   0.30   1.81
 40- 50 0.142 0.271 0.402 0.129 0.269   0.57   1.37   6.44   3.10   0.30   1.57
 50- 60 0.147 0.276 0.403 0.129 0.269   0.50   1.39   6.48   3.10   0.30   1.32
 60- 70 0.147 0.276 0.403 0.129 0.268   0.47   1.40   6.52   3.10   0.30   1.18
 70- 90 0.146 0.275 0.402 0.129 0.268   0.41   1.44   6.58   3.10   0.30   0.91
 90-110 0.145 0.273 0.402 0.128 0.264   0.41   1.46   6.64   3.10   0.30   0.74
110-130 0.143 0.270 0.401 0.127 0.259   0.35   1.47   6.67   3.10   0.30   0.67
130-150 0.141 0.268 0.400 0.127 0.259   0.32   1.48   6.71   3.10   0.30   0.61
150-170 0.139 0.266 0.399 0.127 0.259   0.26   1.49   6.75   3.10   0.30   0.54
170-190 0.137 0.263 0.398 0.126 0.259   0.21   1.50   6.78   3.10   0.30   0.47
190-210 0.136 0.262 0.398 0.126 0.259   0.18   1.51   6.80   3.10   0.30   0.44

TOT-210  29.1  56.0  83.9  26.8  54.5  <--cm   -  kg/ha-->   93.5    9.1 310026
SOIL ALBEDO    : 0.10      EVAPORATION LIMIT : 6.00         MIN. FACTOR  : 1.00
RUNOFF CURVE # :75.00      DRAINAGE RATE     : 0.50         FERT. FACTOR : 1.00

 Wheat            CULTIVAR: AW0005-Bacanora 88        ECOTYPE: IB0003


*SIMULATED CROP AND SOIL STATUS AT MAIN DEVELOPMENT STAGES

 RUN NO.    14     14                      

        CROP GROWTH     BIOMASS         LEAF   CROP N     STRESS      STRESS                                           
   DATE  AGE STAGE        kg/ha    LAI   NUM  kg/ha  %   H2O  Nitr Phos1 Phos2  RSTG                                   
 ------  --- ----------   -----  -----  ----  ---  ---  ----  ----  ----  ----  ----                                   
 24 OCT    0 Fallow           0   0.00   0.0    0  0.0  0.00  0.00  0.00  0.00     8
 24 OCT    0 Sowing           0   0.00   0.0    0  0.0  0.00  0.00  0.00  0.00     8
 26 OCT    2 Germinate        0   0.00   0.0    0  0.0  0.00  0.00  0.00  0.00     9
  7 NOV   14 Emergence       10   0.02   0.0    1 10.6  0.00  0.00  0.00  0.00     1
  4 APR  162 End Juveni    1259   1.66   0.0   45  3.6  0.28  0.00  0.00  0.00     2
 17 MAY  205 End Veg       4225   3.92   0.0   75  1.8  0.89  0.00  0.00  0.00     3
  1 JUN  220 End Ear Gr    6467   3.38   0.0  102  1.6  0.93  0.00  0.00  0.00     4
 14 JUN  233 Beg Gr Fil    9091   2.87   0.0  119  1.3  0.93  0.00  0.00  0.00     5
 21 JUL  270 Maturity     13417   0.00   0.0  156  1.2  0.96  0.00  0.00  0.00     6
 22 JUL  271 Maturity     13417   0.00   0.0  156  1.2  0.70  0.00  0.00  0.00     7
  7 AUG  287 Harvest      13417   0.00   0.0  156  1.2  0.70  0.00  0.00  0.00     7


*MAIN GROWTH AND DEVELOPMENT VARIABLES

@     VARIABLE                                         SIMULATED     MEASURED
      --------                                         ---------     --------
      Anthesis day (dap)                                     220          -99
      Physiological maturity day (dap)                       271          -99
      Yield at harvest maturity (kg [dm]/ha)                6697         9365
      Number at maturity (no/m2)                           14687          -99
      Unit wt at maturity (g [dm]/unit)                     45.6          -99
      Number at maturity (no/unit)                          36.7          -99
      Tops weight at maturity (kg [dm]/ha)                 13417          -99
      By-product produced (stalk) at maturity (kg[dm]/ha       0          -99
      Leaf area index, maximum                              4.08          -99
      Harvest index at maturity                            0.499          -99
      Grain N at maturity (kg/ha)                            135          -99
      Tops N at maturity (kg/ha)                             156          -99
      Stem N at maturity (kg/ha)                               0          -99
      Grain N at maturity (%)                                2.0          -99
      Tops weight at anthesis (kg [dm]/ha)                     2          -99
      Tops N at anthesis (kg/ha)                              35          -99
      Leaf number per stem at maturity                      0.00          -99
      Emergence day (dap)                                     14          -99


*ENVIRONMENTAL AND STRESS FACTORS

 |-----Development Phase------|--------------------------------------Environment--------------------------------------|-----------------Stress-----------------|
                              |---------------Average--------------|-----Cumulative-----|--------Count of days--------|          (0=Min, 1=Max Stress)         |
                         Time  Temp  Temp  Temp Solar Photop                Evapo    Pot TMIN TMIN TMAX TMAX TMAX RAIN|----Water----|---Nitrogen--|-Phosphorus-|
                         Span   Max   Min  Mean   Rad  [day]    CO2   Rain  Trans     ET   <    <    >    >    >    >   Photo         Photo         Photo
                         days     C     C     C MJ/m2     hr    ppm     mm     mm    mm   0 C  2 C 30 C 32 C 34 C  0mm  synth Growth  synth Growth  synth Growth
----------------------------------------------------------------------------------------------------------------------------------------------------------------
 Emergence-End Juvenile   148   5.3  -1.8   1.8   5.6   9.50  314.9  169.0   96.3  118.3   85  115    0    0    0   41  0.233  0.269  0.002  0.005  0.000  0.000
 End Juvenil-Floral Init   43  13.4   3.0   8.2  14.8  13.96  314.9  137.0   48.6  107.4    4   15    0    0    0   13  0.828  0.886  0.000  0.000  0.000  0.000
 Floral Init-End Lf Grow   15  23.1   8.4  15.7  23.7  15.35  314.9    6.0   53.5   71.0    0    0    0    0    0    1  0.895  0.930  0.000  0.000  0.000  0.000
 End Lf Grth-Beg Grn Fil   13  22.5   9.1  15.8  21.3  15.74  314.9   18.0   62.4   56.0    0    0    0    0    0    4  0.894  0.929  0.000  0.000  0.000  0.000
 Grain Filling Phase       37  25.4  12.3  18.9  22.1  15.75  314.9   79.0  119.3  180.1    0    0    3    0    0   12  0.951  0.968  0.000  0.000  0.000  0.000
   
 Planting to Harvest      287  12.2   2.9   7.6  11.5  11.89  314.9  510.0  446.4  620.9   91  137    5    1    0   83  0.456  0.529  0.001  0.003  0.000  0.000
----------------------------------------------------------------------------------------------------------------------------------------------------------------


*Resource Productivity
 Growing season length: 287 days 

 Precipitation during growing season       510.0 mm[rain]
   Dry Matter Productivity                  2.63 kg[DM]/m3[rain]          =   26.3 kg[DM]/ha per mm[rain]
   Yield Productivity                       1.31 kg[grain yield]/m3[rain] =   13.1 kg[yield]/ha per mm[rain]

 Evapotranspiration during growing season  446.4 mm[ET]
   Dry Matter Productivity                  3.01 kg[DM]/m3[ET]            =   30.1 kg[DM]/ha per mm[ET]
   Yield Productivity                       1.50 kg[grain yield]/m3[ET]   =   15.0 kg[yield]/ha per mm[ET]

 Transpiration during growing season       247.6 mm[EP]
   Dry Matter Productivity                  5.42 kg[DM]/m3[EP]            =   54.2 kg[DM]/ha per mm[EP]
   Yield Productivity                       2.70 kg[grain yield]/m3[EP]   =   27.0 kg[yield]/ha per mm[EP]

 N applied during growing season            180. kg[N applied]/ha
   Dry Matter Productivity                  74.5 kg[DM]/kg[N applied]
   Yield Productivity                       37.2 kg[yield]/kg[N applied]

 N uptake during growing season              192 kg[N uptake]/ha
   Dry Matter Productivity                  69.9 kg[DM]/kg[N uptake]
   Yield Productivity                       34.9 kg[yield]/kg[N uptake]

--------------------------------------------------------------------------------------------------------------

                     Wheat YIELD :     6697 kg/ha    [Dry weight] 

**************************************************************************************************************

*DSSAT Cropping System Model Ver. 4.8.5.000 -release  NOV 27, 2025 15:48:51

*RUN  15        : 15                        WHAPS048 TUDU1701   15
 MODEL          : WHAPS048 - Wheat
 EXPERIMENT     : TUDU1701 WH
 DATA PATH      :
 TREATMENT 15   : 15                        WHAPS048


 CROP           : Wheat            CULTIVAR : Bacanora 88      ECOTYPE :IB0003
 STARTING DATE  : OCT 24   16
 PLANTING DATE  : OCT 24   16      PLANTS/m2 :   400.0    ROW SPACING :  12.cm
 HARVEST DATE   : AUG  7   17
 WEATHER        : TUDU     16
 SOIL           : DE02157980     TEXTURE : -99   - -99
 SOIL INIT COND : DEPTH:210cm EXTR. H2O:268.2mm  NO3: 93.5kg/ha  NH4:  9.1kg/ha
 WATER BALANCE  : RAINFED
 IRRIGATION     : NOT IRRIGATED
 NITROGEN BAL.  : SOIL-N & N-UPTAKE SIMULATION; NO N-FIXATION
 N-FERTILIZER   :        0 kg/ha IN     0 APPLICATIONS
 RESIDUE/MANURE : INITIAL :  1500 kg/ha ;       0 kg/ha IN     0 APPLICATIONS
 ENVIRONM. OPT. : DAYL=    0.00  SRAD=    0.00  TMAX=    0.00  TMIN=    0.00
                  RAIN=    0.00  CO2 =    0.00  DEW =    0.00  WIND=    0.00
 SIMULATION OPT : WATER   :Y  NITROGEN:Y  N-FIX:N  PHOSPH :N  PESTS  :N
                  PHOTO   :C  ET      :R  INFIL:S  HYDROL :R  SOM    :G
                  CO2 315ppm  NSWIT   :1  EVAP :S  SOIL   :2  STEMP  :D
 MANAGEMENT OPT : PLANTING:R  IRRIG   :N  FERT :R  RESIDUE:N  HARVEST:R
                  WEATHER :M  TILLAGE :Y

*SUMMARY OF SOIL AND GENETIC INPUT PARAMETERS

   SOIL LOWER UPPER   SAT  EXTR  INIT   ROOT   BULK     pH    NO3    NH4    ORG
  DEPTH LIMIT LIMIT    SW    SW    SW   DIST   DENS                          C
   cm   cm3/cm3    cm3/cm3    cm3/cm3         g/cm3         ugN/g  ugN/g     %
-------------------------------------------------------------------------------
  0-  5 0.108 0.236 0.391 0.128 0.223   1.00   1.29   6.20   3.10   0.30   3.19
  5- 15 0.118 0.246 0.395 0.128 0.234   0.86   1.31   6.28   3.10   0.30   2.72
 15- 20 0.123 0.252 0.396 0.129 0.249   0.80   1.32   6.31   3.10   0.30   2.49
 20- 30 0.133 0.262 0.399 0.129 0.249   0.70   1.34   6.37   3.10   0.30   2.06
 30- 40 0.138 0.267 0.400 0.129 0.269   0.63   1.36   6.41   3.10   0.30   1.81
 40- 50 0.142 0.271 0.402 0.129 0.269   0.57   1.37   6.44   3.10   0.30   1.57
 50- 60 0.147 0.276 0.403 0.129 0.269   0.50   1.39   6.48   3.10   0.30   1.32
 60- 70 0.147 0.276 0.403 0.129 0.268   0.47   1.40   6.52   3.10   0.30   1.18
 70- 90 0.146 0.275 0.402 0.129 0.268   0.41   1.44   6.58   3.10   0.30   0.91
 90-110 0.145 0.273 0.402 0.128 0.264   0.41   1.46   6.64   3.10   0.30   0.74
110-130 0.143 0.270 0.401 0.127 0.259   0.35   1.47   6.67   3.10   0.30   0.67
130-150 0.141 0.268 0.400 0.127 0.259   0.32   1.48   6.71   3.10   0.30   0.61
150-170 0.139 0.266 0.399 0.127 0.259   0.26   1.49   6.75   3.10   0.30   0.54
170-190 0.137 0.263 0.398 0.126 0.259   0.21   1.50   6.78   3.10   0.30   0.47
190-210 0.136 0.262 0.398 0.126 0.259   0.18   1.51   6.80   3.10   0.30   0.44

TOT-210  29.1  56.0  83.9  26.8  54.5  <--cm   -  kg/ha-->   93.5    9.1 310026
SOIL ALBEDO    : 0.10      EVAPORATION LIMIT : 6.00         MIN. FACTOR  : 1.00
RUNOFF CURVE # :75.00      DRAINAGE RATE     : 0.50         FERT. FACTOR : 1.00

 Wheat            CULTIVAR: AW0005-Bacanora 88        ECOTYPE: IB0003


*SIMULATED CROP AND SOIL STATUS AT MAIN DEVELOPMENT STAGES

 RUN NO.    15     15                      

        CROP GROWTH     BIOMASS         LEAF   CROP N     STRESS      STRESS                                           
   DATE  AGE STAGE        kg/ha    LAI   NUM  kg/ha  %   H2O  Nitr Phos1 Phos2  RSTG                                   
 ------  --- ----------   -----  -----  ----  ---  ---  ----  ----  ----  ----  ----                                   
 24 OCT    0 Fallow           0   0.00   0.0    0  0.0  0.00  0.00  0.00  0.00     8
 24 OCT    0 Sowing           0   0.00   0.0    0  0.0  0.00  0.00  0.00  0.00     8
 26 OCT    2 Germinate        0   0.00   0.0    0  0.0  0.00  0.00  0.00  0.00     9
  7 NOV   14 Emergence       10   0.02   0.0    1 10.6  0.00  0.00  0.00  0.00     1
  4 APR  162 End Juveni     469   0.59   0.0   12  2.5  0.28  0.00  0.00  0.00     2
 17 MAY  205 End Veg       1469   1.21   0.0   25  1.7  0.94  0.00  0.00  0.00     3
  1 JUN  220 End Ear Gr    2256   1.03   0.0   30  1.3  0.96  0.00  0.00  0.00     4
 14 JUN  233 Beg Gr Fil    3555   0.84   0.0   35  1.0  0.93  0.00  0.00  0.00     5
 21 JUL  270 Maturity      5244   0.00   0.0   51  1.0  0.90  0.00  0.00  0.00     6
 22 JUL  271 Maturity      5244   0.00   0.0   51  1.0  0.23  0.00  0.00  0.00     7
  7 AUG  287 Harvest       5244   0.00   0.0   51  1.0  0.23  0.00  0.00  0.00     7


*MAIN GROWTH AND DEVELOPMENT VARIABLES

@     VARIABLE                                         SIMULATED     MEASURED
      --------                                         ---------     --------
      Anthesis day (dap)                                     220          -99
      Physiological maturity day (dap)                       271          -99
      Yield at harvest maturity (kg [dm]/ha)                2833         2617
      Number at maturity (no/m2)                            6108          -99
      Unit wt at maturity (g [dm]/unit)                     46.4          -99
      Number at maturity (no/unit)                          15.3          -99
      Tops weight at maturity (kg [dm]/ha)                  5244          -99
      By-product produced (stalk) at maturity (kg[dm]/ha       0          -99
      Leaf area index, maximum                              1.29          -99
      Harvest index at maturity                            0.540          -99
      Grain N at maturity (kg/ha)                             43          -99
      Tops N at maturity (kg/ha)                              51          -99
      Stem N at maturity (kg/ha)                               0          -99
      Grain N at maturity (%)                                1.5          -99
      Tops weight at anthesis (kg [dm]/ha)                     2          -99
      Tops N at anthesis (kg/ha)                              35          -99
      Leaf number per stem at maturity                      0.00          -99
      Emergence day (dap)                                     14          -99


*ENVIRONMENTAL AND STRESS FACTORS

 |-----Development Phase------|--------------------------------------Environment--------------------------------------|-----------------Stress-----------------|
                              |---------------Average--------------|-----Cumulative-----|--------Count of days--------|          (0=Min, 1=Max Stress)         |
                         Time  Temp  Temp  Temp Solar Photop                Evapo    Pot TMIN TMIN TMAX TMAX TMAX RAIN|----Water----|---Nitrogen--|-Phosphorus-|
                         Span   Max   Min  Mean   Rad  [day]    CO2   Rain  Trans     ET   <    <    >    >    >    >   Photo         Photo         Photo
                         days     C     C     C MJ/m2     hr    ppm     mm     mm    mm   0 C  2 C 30 C 32 C 34 C  0mm  synth Growth  synth Growth  synth Growth
----------------------------------------------------------------------------------------------------------------------------------------------------------------
 Emergence-End Juvenile   148   5.3  -1.8   1.8   5.6   9.50  314.9  169.0   83.7  120.0   85  115    0    0    0   41  0.233  0.270  0.002  0.005  0.000  0.000
 End Juvenil-Floral Init   43  13.4   3.0   8.2  14.8  13.96  314.9  137.0   54.8  114.9    4   15    0    0    0   13  0.904  0.937  0.000  0.000  0.000  0.000
 Floral Init-End Lf Grow   15  23.1   8.4  15.7  23.7  15.35  314.9    6.0   31.5   75.5    0    0    0    0    0    1  0.944  0.963  0.000  0.000  0.000  0.000
 End Lf Grth-Beg Grn Fil   13  22.5   9.1  15.8  21.3  15.74  314.9   18.0   47.6   60.2    0    0    0    0    0    4  0.894  0.930  0.000  0.000  0.000  0.000
 Grain Filling Phase       37  25.4  12.3  18.9  22.1  15.75  314.9   79.0  108.3  192.7    0    0    3    0    0   12  0.884  0.923  0.000  0.000  0.000  0.000
   
 Planting to Harvest      287  12.2   2.9   7.6  11.5  11.89  314.9  510.0  397.3  651.7   91  137    5    1    0   83  0.460  0.505  0.001  0.003  0.000  0.000
----------------------------------------------------------------------------------------------------------------------------------------------------------------


*Resource Productivity
 Growing season length: 287 days 

 Precipitation during growing season       510.0 mm[rain]
   Dry Matter Productivity                  1.03 kg[DM]/m3[rain]          =   10.3 kg[DM]/ha per mm[rain]
   Yield Productivity                       0.56 kg[grain yield]/m3[rain] =    5.6 kg[yield]/ha per mm[rain]

 Evapotranspiration during growing season  397.3 mm[ET]
   Dry Matter Productivity                  1.32 kg[DM]/m3[ET]            =   13.2 kg[DM]/ha per mm[ET]
   Yield Productivity                       0.71 kg[grain yield]/m3[ET]   =    7.1 kg[yield]/ha per mm[ET]

 Transpiration during growing season       106.3 mm[EP]
   Dry Matter Productivity                  4.93 kg[DM]/m3[EP]            =   49.3 kg[DM]/ha per mm[EP]
   Yield Productivity                       2.66 kg[grain yield]/m3[EP]   =   26.6 kg[yield]/ha per mm[EP]

 N uptake during growing season               65 kg[N uptake]/ha
   Dry Matter Productivity                  80.7 kg[DM]/kg[N uptake]
   Yield Productivity                       43.6 kg[yield]/kg[N uptake]

--------------------------------------------------------------------------------------------------------------

                     Wheat YIELD :     2833 kg/ha    [Dry weight] 

**************************************************************************************************************
