*PLANT N OUTPUT FILE

*DSSAT Cropping System Model Ver. 4.8.5.000 -release  NOV 27, 2025 15:48:48

*RUN   1        : 1                         WHAPS048 TUDU1701    1
 MODEL          : WHAPS048 - Wheat
 EXPERIMENT     : TUDU1701 WH
 DATA PATH      :
 TREATMENT  1   : 1                         WHAPS048
  
@YEAR DOY   DAS   DAP   CNAD   GNAD   GN%D   VN%D   NUPC   LNAD   SNAD   LN%D   SN%D   RN%D   SNN0C   SNN1C NFact1 NFact2 NFact3 NFact4  RootN lfshthN
   16 298     1     0    0.0    0.0   0.00   0.00    0.0    0.0    0.0    0.0   0.00   0.00    0.00    0.00   0.00   0.00   0.00   0.00   0.00   0.00
   16 299     2     1    0.0    0.0   0.00   0.00    0.0    0.0    0.0    0.0   0.00   0.00    0.00    0.00   0.00   0.00   0.00   0.00   0.00   0.00
   16 300     3     2    0.0    0.0   0.00   0.00    0.0    0.0    0.0    0.0   0.00   0.00    0.00    0.00   0.00   0.00   0.00   0.00   0.00   0.00
   16 301     4     3    0.0    0.0   0.00   0.00    0.0    0.0    0.0    0.0   0.00   0.00    0.00    0.00   0.00   0.00   0.00   0.00   0.00   0.00
   16 302     5     4    0.0    0.0   0.00   0.00    0.0    0.0    0.0    0.0   0.00   0.00    0.00    0.00   0.00   0.00   0.00   0.00   0.00   0.00
   16 303     6     5    0.0    0.0   0.00   0.00    0.0    0.0    0.0    0.0   0.00   0.00    0.00    0.00   0.00   0.00   0.00   0.00   0.00   0.00
   16 304     7     6    0.0    0.0   0.00   0.00    0.0    0.0    0.0    0.0   0.00   0.00    0.00    0.00   0.00   0.00   0.00   0.00   0.00   0.00
   16 305     8     7    0.0    0.0   0.00   0.00    0.0    0.0    0.0    0.0   0.00   0.00    0.00    0.00   0.00   0.00   0.00   0.00   0.00   0.00
   16 306     9     8    0.0    0.0   0.00   0.00    0.0    0.0    0.0    0.0   0.00   0.00    0.00    0.00   0.00   0.00   0.00   0.00   0.00   0.00
   16 307    10     9    0.0    0.0   0.00   0.00    0.0    0.0    0.0    0.0   0.00   0.00    0.00    0.00   0.00   0.00   0.00   0.00   0.00   0.00
   16 308    11    10    0.0    0.0   0.00   0.00    0.0    0.0    0.0    0.0   0.00   0.00    0.00    0.00   0.00   0.00   0.00   0.00   0.00   0.00
   16 309    12    11    0.0    0.0   0.00   0.00    0.0    0.0    0.0    0.0   0.00   0.00    0.00    0.00   0.00   0.00   0.00   0.00   0.00   0.00
   16 310    13    12    0.0    0.0   0.00   0.00    0.0    0.0    0.0    0.0   0.00   0.00    0.00    0.00   0.00   0.00   0.00   0.00   0.00   0.00
   16 311    14    13    0.0    0.0   0.00   0.00    0.0    0.0    0.0    0.0   0.00   0.00    0.00    0.00   0.00   0.00   0.00   0.00   0.00   0.00
   16 312    15    14    1.0    0.0   0.00  10.60    0.2    0.6    0.0    6.3   6.36   4.49    0.00    0.00   0.00   0.00   0.00   0.00   1.07   0.41
   16 313    16    15    1.0    0.0   0.00  10.48    0.2    0.6    0.0    6.3   6.36   4.47    0.00    0.00   0.00   0.00   0.00   0.00   1.06   0.41
   16 314    17    16    1.0    0.0   0.00  10.26    0.2    0.6    0.0    6.3   6.36   4.42    0.00    0.00   0.00   0.00   0.00   0.00   1.05   0.41
   16 315    18    17    1.0    0.0   0.00   9.51    0.2    0.6    0.0    5.9   6.36   4.40    0.00    0.00   0.00   0.00   0.00   0.00   1.04   0.41
   16 316    19    18    1.1    0.0   0.00   9.38    0.2    0.6    0.0    6.0   6.36   4.37    0.00    0.00   0.00   0.00   0.00   0.00   1.03   0.41
   16 317    20    19    1.1    0.0   0.00   9.44    0.3    0.7    0.0    6.2   6.36   4.34    0.00    0.00   0.00   0.00   0.00   0.00   1.02   0.41
   16 318    21    20    1.1    0.0   0.00   9.50    0.3    0.7    0.0    6.3   6.36   4.34    0.00    0.00   0.00   0.00   0.00   0.00   1.01   0.41
   16 319    22    21    1.1    0.0   0.00   9.50    0.3    0.7    0.0    6.3   6.36   4.34    0.00    0.00   0.00   0.00   0.00   0.00   1.00   0.41
   16 320    23    22    1.1    0.0   0.00   9.06    0.3    0.7    0.0    6.1   6.36   4.31    0.00    0.00   0.00   0.00   0.00   0.00   0.99   0.41
   16 321    24    23    1.1    0.0   0.00   7.13    0.3    0.7    0.0    4.8   6.36   4.29    0.00    0.00   0.00   0.00   0.00   0.00   0.98   0.41
   16 322    25    24    1.3    0.0   0.00   6.68    0.5    0.9    0.0    4.9   6.36   4.25    0.00    0.00   0.00   0.00   0.00   0.00   0.97   0.41
   16 323    26    25    1.5    0.0   0.00   5.69    0.6    1.0    0.0    4.3   6.36   4.22    0.00    0.00   0.00   0.00   0.00   0.00   0.96   0.41
   16 324    27    26    1.5    0.0   0.00   5.61    0.7    1.1    0.0    4.3   6.36   4.20    0.00    0.00   0.00   0.00   0.00   0.00   0.95   0.41
   16 325    28    27    1.6    0.0   0.00   5.44    0.8    1.2    0.0    4.3   6.36   4.12    0.00    0.00   0.00   0.00   0.00   0.00   0.94   0.41
   16 326    29    28    1.7    0.0   0.00   4.67    0.9    1.3    0.0    3.8   6.36   4.05    0.00    0.00   0.00   0.00   0.00   0.00   0.93   0.41
   16 327    30    29    1.8    0.0   0.00   4.32    1.0    1.4    0.0    3.6   6.36   4.00    0.00    0.00   0.08   0.39   0.63   0.63   0.92   0.41
   16 328    31    30    1.9    0.0   0.00   4.16    1.1    1.5    0.0    3.5   6.36   3.95    0.00    0.00   0.22   0.48   0.73   0.73   0.91   0.41
   16 329    32    31    2.0    0.0   0.00   4.10    1.2    1.6    0.0    3.5   6.36   3.93    0.00    0.00   0.29   0.52   0.77   0.77   0.90   0.41
   16 330    33    32    2.1    0.0   0.00   3.96    1.2    1.6    0.0    3.4   6.36   3.91    0.00    0.00   0.31   0.54   0.79   0.79   0.89   0.41
   16 331    34    33    2.1    0.0   0.00   3.85    1.3    1.7    0.0    3.3   6.36   3.89    0.00    0.00   0.36   0.57   0.82   0.82   0.88   0.41
   16 332    35    34    2.2    0.0   0.00   3.80    1.3    1.7    0.0    3.3   6.36   3.86    0.00    0.00   0.40   0.60   0.84   0.84   0.87   0.41
   16 333    36    35    2.2    0.0   0.00   3.91    1.4    1.8    0.0    3.4   6.36   3.86    0.00    0.00   0.42   0.61   0.85   0.85   0.87   0.41
   16 334    37    36    2.3    0.0   0.00   4.00    1.5    1.9    0.0    3.5   6.36   3.86    0.00    0.00   0.38   0.58   0.83   0.83   0.86   0.41
   16 335    38    37    2.4    0.0   0.00   4.09    1.5    1.9    0.0    3.6   6.36   3.86    0.00    0.00   0.34   0.56   0.80   0.80   0.85   0.41
   16 336    39    38    2.4    0.0   0.00   4.12    1.6    2.0    0.0    3.6   6.36   3.84    0.00    0.00   0.30   0.53   0.78   0.78   0.84   0.41
   16 337    40    39    2.5    0.0   0.00   4.11    1.6    2.0    0.0    3.6   6.36   3.81    0.00    0.00   0.28   0.52   0.77   0.77   0.83   0.41
   16 338    41    40    2.5    0.0   0.00   4.20    1.7    2.1    0.0    3.7   6.36   3.81    0.00    0.00   0.28   0.52   0.77   0.77   0.82   0.41
   16 339    42    41    2.5    0.0   0.00   4.28    1.7    2.1    0.0    3.8   6.36   3.81    0.00    0.00   0.25   0.50   0.75   0.75   0.82   0.41
   16 340    43    42    2.6    0.0   0.00   4.35    1.7    2.2    0.0    3.9   6.36   3.81    0.00    0.00   0.21   0.48   0.73   0.73   0.81   0.41
   16 341    44    43    2.6    0.0   0.00   4.41    1.8    2.2    0.0    4.0   6.36   3.81    0.00    0.00   0.19   0.46   0.71   0.71   0.80   0.41
   16 342    45    44    2.7    0.0   0.00   4.47    1.8    2.2    0.0    4.0   6.36   3.81    0.00    0.00   0.16   0.44   0.69   0.69   0.79   0.41
   16 343    46    45    2.7    0.0   0.00   4.52    1.9    2.3    0.0    4.1   6.36   3.81    0.00    0.00   0.13   0.42   0.66   0.66   0.78   0.41
   16 344    47    46    2.7    0.0   0.00   4.50    1.9    2.3    0.0    4.1   6.36   3.79    0.00    0.00   0.10   0.40   0.64   0.64   0.78   0.41
   16 345    48    47    2.8    0.0   0.00   4.35    1.9    2.3    0.0    4.0   6.36   3.72    0.00    0.00   0.11   0.40   0.65   0.65   0.77   0.41
   16 346    49    48    2.8    0.0   0.00   4.36    1.9    2.3    0.0    4.0   6.36   3.69    0.00    0.00   0.17   0.45   0.69   0.69   0.76   0.41
   16 347    50    49    2.8    0.0   0.00   4.35    2.0    2.4    0.0    4.0   6.36   3.67    0.00    0.00   0.16   0.44   0.69   0.69   0.75   0.41
   16 348    51    50    2.8    0.0   0.00   4.35    2.0    2.4    0.0    4.0   6.36   3.63    0.00    0.00   0.16   0.44   0.69   0.69   0.74   0.41
   16 349    52    51    2.9    0.0   0.00   4.19    2.0    2.4    0.0    3.9   6.36   3.58    0.00    0.00   0.16   0.44   0.69   0.69   0.74   0.41
   16 350    53    52    2.9    0.0   0.00   4.21    2.1    2.5    0.0    3.9   6.36   3.56    0.00    0.00   0.23   0.49   0.74   0.74   0.73   0.41
   16 351    54    53    2.9    0.0   0.00   4.25    2.1    2.5    0.0    4.0   6.36   3.56    0.00    0.00   0.22   0.48   0.73   0.73   0.72   0.41
   16 352    55    54    3.0    0.0   0.00   4.29    2.1    2.5    0.0    4.0   6.36   3.56    0.00    0.00   0.20   0.47   0.72   0.72   0.72   0.41
   16 353    56    55    3.0    0.0   0.00   4.32    2.1    2.5    0.0    4.0   6.36   3.56    0.00    0.00   0.18   0.46   0.70   0.70   0.71   0.41
   16 354    57    56    3.0    0.0   0.00   4.36    2.2    2.6    0.0    4.1   6.36   3.56    0.00    0.00   0.17   0.44   0.69   0.69   0.70   0.41
   16 355    58    57    3.0    0.0   0.00   4.39    2.2    2.6    0.0    4.1   6.36   3.56    0.00    0.00   0.15   0.43   0.68   0.68   0.69   0.41
   16 356    59    58    3.0    0.0   0.00   4.42    2.2    2.6    0.0    4.1   6.36   3.56    0.00    0.00   0.14   0.42   0.67   0.67   0.69   0.41
   16 357    60    59    3.1    0.0   0.00   4.45    2.2    2.6    0.0    4.2   6.36   3.56    0.00    0.00   0.12   0.41   0.66   0.66   0.68   0.41
   16 358    61    60    3.1    0.0   0.00   4.48    2.2    2.6    0.0    4.2   6.36   3.56    0.00    0.00   0.11   0.40   0.65   0.65   0.67   0.41
   16 359    62    61    3.1    0.0   0.00   4.48    2.3    2.7    0.0    4.2   6.36   3.53    0.00    0.00   0.09   0.39   0.63   0.63   0.67   0.41
   16 360    63    62    3.1    0.0   0.00   4.48    2.3    2.7    0.0    4.2   6.36   3.49    0.00    0.00   0.08   0.39   0.62   0.62   0.66   0.41
   16 361    64    63    3.1    0.0   0.00   4.47    2.3    2.7    0.0    4.3   6.36   3.45    0.00    0.00   0.08   0.38   0.62   0.62   0.65   0.41
   16 362    65    64    3.2    0.0   0.00   4.47    2.3    2.7    0.0    4.3   6.36   3.41    0.00    0.00   0.08   0.38   0.62   0.62   0.65   0.41
   16 363    66    65    3.2    0.0   0.00   4.48    2.3    2.7    0.0    4.3   6.36   3.38    0.00    0.00   0.08   0.38   0.62   0.62   0.64   0.41
   16 364    67    66    3.2    0.0   0.00   4.48    2.4    2.8    0.0    4.3   6.36   3.32    0.00    0.00   0.07   0.38   0.62   0.62   0.63   0.41
   16 365    68    67    3.2    0.0   0.00   4.51    2.4    2.8    0.0    4.3   6.36   3.32    0.00    0.00   0.07   0.38   0.61   0.61   0.63   0.41
   16 366    69    68    3.2    0.0   0.00   4.54    2.4    2.8    0.0    4.4   6.36   3.32    0.00    0.00   0.05   0.37   0.60   0.60   0.62   0.41
   17 001    70    69    3.3    0.0   0.00   4.57    2.4    2.8    0.0    4.4   6.36   3.32    0.00    0.00   0.04   0.36   0.59   0.59   0.62   0.41
   17 002    71    70    3.3    0.0   0.00   4.60    2.4    2.8    0.0    4.4   6.36   3.32    0.00    0.00   0.03   0.35   0.58   0.58   0.61   0.41
   17 003    72    71    3.3    0.0   0.00   4.62    2.5    2.9    0.0    4.5   6.36   3.32    0.00    0.00   0.01   0.34   0.57   0.57   0.60   0.41
   17 004    73    72    3.3    0.0   0.00   4.65    2.5    2.9    0.0    4.5   6.36   3.32    0.00    0.00   0.00   0.33   0.56   0.56   0.60   0.41
   17 005    74    73    3.3    0.0   0.00   4.67    2.5    2.9    0.0    4.5   6.36   3.32    0.00    0.00   0.00   0.33   0.55   0.55   0.59   0.41
   17 006    75    74    3.4    0.0   0.00   4.70    2.5    2.9    0.0    4.6   6.36   3.32    0.00    0.00   0.00   0.32   0.54   0.54   0.59   0.41
   17 007    76    75    3.4    0.0   0.00   4.72    2.5    2.9    0.0    4.6   6.36   3.32    0.00    0.00   0.00   0.31   0.53   0.53   0.58   0.41
   17 008    77    76    3.4    0.0   0.00   4.74    2.5    3.0    0.0    4.6   6.36   3.32    0.00    0.00   0.00   0.30   0.52   0.52   0.57   0.41
   17 009    78    77    3.4    0.0   0.00   4.77    2.6    3.0    0.0    4.6   6.36   3.32    0.00    0.00   0.00   0.30   0.51   0.51   0.57   0.41
   17 010    79    78    3.4    0.0   0.00   4.79    2.6    3.0    0.0    4.7   6.36   3.32    0.00    0.00   0.00   0.29   0.50   0.50   0.56   0.41
   17 011    80    79    3.4    0.0   0.00   4.81    2.6    3.0    0.0    4.7   6.36   3.32    0.00    0.00   0.00   0.28   0.49   0.49   0.56   0.41
   17 012    81    80    3.5    0.0   0.00   4.81    2.6    3.0    0.0    4.7   6.36   3.30    0.00    0.00   0.00   0.28   0.47   0.47   0.55   0.41
   17 013    82    81    3.5    0.0   0.00   4.81    2.6    3.0    0.0    4.7   6.36   3.27    0.00    0.00   0.00   0.27   0.47   0.47   0.55   0.41
   17 014    83    82    3.5    0.0   0.00   4.83    2.6    3.0    0.0    4.7   6.36   3.27    0.00    0.00   0.00   0.27   0.47   0.47   0.54   0.41
   17 015    84    83    3.5    0.0   0.00   4.85    2.7    3.1    0.0    4.7   6.36   3.27    0.00    0.00   0.00   0.27   0.46   0.46   0.53   0.41
   17 016    85    84    3.5    0.0   0.00   4.87    2.7    3.1    0.0    4.8   6.36   3.27    0.00    0.00   0.00   0.26   0.45   0.45   0.53   0.41
   17 017    86    85    3.5    0.0   0.00   4.89    2.7    3.1    0.0    4.8   6.36   3.27    0.00    0.00   0.00   0.25   0.44   0.44   0.52   0.41
   17 018    87    86    3.5    0.0   0.00   4.91    2.7    3.1    0.0    4.8   6.36   3.27    0.00    0.00   0.00   0.25   0.43   0.43   0.52   0.41
   17 019    88    87    3.6    0.0   0.00   4.93    2.7    3.1    0.0    4.8   6.36   3.27    0.00    0.00   0.00   0.24   0.43   0.43   0.51   0.41
   17 020    89    88    3.6    0.0   0.00   4.95    2.7    3.1    0.0    4.9   6.36   3.27    0.00    0.00   0.00   0.24   0.42   0.42   0.51   0.41
   17 021    90    89    3.6    0.0   0.00   4.97    2.7    3.1    0.0    4.9   6.36   3.27    0.00    0.00   0.00   0.23   0.41   0.41   0.50   0.42
   17 022    91    90    3.6    0.0   0.00   4.99    2.8    3.2    0.0    4.9   6.36   3.27    0.00    0.00   0.00   0.22   0.40   0.40   0.50   0.42
   17 023    92    91    3.6    0.0   0.00   5.01    2.8    3.2    0.0    4.9   6.36   3.27    0.00    0.00   0.00   0.22   0.39   0.39   0.49   0.42
   17 024    93    92    3.6    0.0   0.00   5.02    2.8    3.2    0.0    4.9   6.36   3.27    0.00    0.00   0.00   0.21   0.38   0.38   0.49   0.42
   17 025    94    93    3.6    0.0   0.00   5.04    2.8    3.2    0.0    5.0   6.36   3.27    0.00    0.00   0.00   0.21   0.37   0.37   0.48   0.42
   17 026    95    94    3.7    0.0   0.00   5.06    2.8    3.2    0.0    5.0   6.36   3.27    0.00    0.00   0.00   0.20   0.36   0.36   0.48   0.42
   17 027    96    95    3.7    0.0   0.00   5.08    2.8    3.2    0.0    5.0   6.36   3.27    0.00    0.00   0.00   0.20   0.36   0.36   0.47   0.42
   17 028    97    96    3.7    0.0   0.00   5.10    2.8    3.2    0.0    5.0   6.36   3.27    0.00    0.00   0.00   0.19   0.35   0.35   0.47   0.42
   17 029    98    97    3.7    0.0   0.00   5.11    2.8    3.3    0.0    5.0   6.36   3.27    0.00    0.00   0.00   0.19   0.34   0.34   0.46   0.42
   17 030    99    98    3.7    0.0   0.00   5.13    2.9    3.3    0.0    5.1   6.36   3.27    0.00    0.00   0.00   0.18   0.33   0.33   0.46   0.42
   17 031   100    99    3.7    0.0   0.00   5.08    2.9    3.3    0.0    5.0   6.36   3.17    0.00    0.00   0.00   0.17   0.32   0.32   0.46   0.42
   17 032   101   100    3.7    0.0   0.00   5.07    2.9    3.3    0.0    5.0   6.36   3.13    0.00    0.00   0.00   0.19   0.34   0.34   0.45   0.42
   17 033   102   101    3.7    0.0   0.00   5.02    2.9    3.3    0.0    5.0   6.36   3.04    0.00    0.00   0.00   0.19   0.34   0.34   0.45   0.42
   17 034   103   102    3.8    0.0   0.00   5.01    2.9    3.3    0.0    5.0   6.36   2.99    0.00    0.00   0.00   0.20   0.36   0.36   0.44   0.42
   17 035   104   103    4.4    0.0   0.00   5.77    3.6    3.8    0.0    5.7   6.36   2.86    0.00    0.00   0.00   0.20   0.36   0.36   0.44   0.58
   17 036   105   104    4.5    0.0   0.00   5.74    3.7    3.9    0.0    5.7   6.36   2.70    0.00    0.00   0.00   0.00   0.00   0.00   0.43   0.63
   17 037   106   105    4.5    0.0   0.00   5.71    3.7    3.9    0.0    5.7   6.36   2.66    0.00    0.00   0.00   0.00   0.00   0.00   0.43   0.64
   17 038   107   106    4.6    0.0   0.00   5.73    3.8    3.9    0.0    5.7   6.36   2.56    0.00    0.00   0.00   0.00   0.00   0.00   0.42   0.69
   17 039   108   107    4.6    0.0   0.00   5.73    3.8    3.9    0.0    5.7   6.36   2.56    0.00    0.00   0.00   0.00   0.00   0.00   0.42   0.69
   17 040   109   108    4.6    0.0   0.00   5.73    3.8    3.9    0.0    5.7   6.36   2.56    0.00    0.00   0.00   0.00   0.00   0.00   0.42   0.69
   17 041   110   109    4.6    0.0   0.00   5.73    3.8    3.9    0.0    5.7   6.36   2.56    0.00    0.00   0.00   0.00   0.00   0.00   0.41   0.69
   17 042   111   110    4.6    0.0   0.00   5.73    3.8    3.9    0.0    5.7   6.36   2.56    0.00    0.00   0.00   0.00   0.00   0.00   0.41   0.69
   17 043   112   111    4.6    0.0   0.00   5.73    3.8    3.9    0.0    5.7   6.36   2.56    0.00    0.00   0.00   0.00   0.00   0.00   0.40   0.69
   17 044   113   112    4.7    0.0   0.00   5.69    3.8    3.9    0.0    5.7   6.36   2.49    0.00    0.00   0.00   0.00   0.00   0.00   0.40   0.71
   17 045   114   113    4.8    0.0   0.00   5.88    4.0    4.0    0.0    5.8   6.36   2.48    0.00    0.00   0.00   0.00   0.00   0.00   0.40   0.80
   17 046   115   114    4.8    0.0   0.00   5.87    4.0    4.0    0.0    5.7   6.36   2.46    0.00    0.00   0.00   0.00   0.00   0.00   0.39   0.81
   17 047   116   115    4.8    0.0   0.00   5.62    4.0    4.0    0.0    5.6   6.36   2.22    0.00    0.00   0.00   0.00   0.00   0.00   0.39   0.82
   17 048   117   116    4.9    0.0   0.00   5.63    4.1    4.0    0.0    5.6   6.36   2.16    0.00    0.00   0.00   0.00   0.00   0.00   0.38   0.87
   17 049   118   117    5.0    0.0   0.00   5.62    4.2    4.1    0.0    5.6   6.36   2.07    0.00    0.00   0.00   0.00   0.00   0.00   0.38   0.92
   17 050   119   118    5.0    0.0   0.00   5.59    4.2    4.1    0.0    5.6   6.36   2.07    0.00    0.00   0.00   0.00   0.00   0.00   0.40   0.94
   17 051   120   119    5.2    0.0   0.00   5.58    4.4    4.2    0.0    5.5   6.36   1.98    0.00    0.00   0.00   0.00   0.00   0.00   0.41   1.03
   17 052   121   120    5.2    0.0   0.00   5.48    4.4    4.2    0.0    5.5   6.36   1.94    0.00    0.00   0.00   0.00   0.00   0.00   0.41   1.04
   17 053   122   121    5.3    0.0   0.00   5.43    4.5    4.2    0.0    5.4   6.36   1.94    0.00    0.00   0.00   0.00   0.00   0.00   0.43   1.11
   17 054   123   122    5.6    0.0   0.00   5.37    4.8    4.3    0.0    5.4   6.36   1.93    0.00    0.00   0.00   0.00   0.00   0.00   0.47   1.25
   17 055   124   123    5.8    0.0   0.00   5.39    5.1    4.4    0.0    5.4   6.36   1.96    0.00    0.00   0.00   0.00   0.00   0.00   0.51   1.38
   17 056   125   124    6.2    0.0   0.00   5.48    5.6    4.6    0.0    5.4   6.36   2.03    0.00    0.00   0.00   0.00   0.00   0.00   0.57   1.58
   17 057   126   125    6.4    0.0   0.00   5.38    5.8    4.7    0.0    5.3   6.36   1.97    0.00    0.00   0.00   0.00   0.00   0.00   0.59   1.68
   17 058   127   126    6.8    0.0   0.00   5.34    6.3    4.9    0.0    5.3   6.36   1.97    0.00    0.00   0.00   0.00   0.00   0.00   0.66   1.90
   17 059   128   127    6.9    0.0   0.00   5.30    6.4    4.9    0.0    5.3   6.36   1.95    0.00    0.00   0.00   0.00   0.00   0.00   0.67   1.93
   17 060   129   128    7.2    0.0   0.00   5.34    6.8    5.1    0.0    5.3   6.36   1.98    0.00    0.00   0.00   0.00   0.00   0.00   0.72   2.11
   17 061   130   129    7.7    0.0   0.00   5.33    7.4    5.3    0.0    5.3   6.36   1.99    0.00    0.00   0.00   0.00   0.00   0.00   0.80   2.38
   17 062   131   130    8.1    0.0   0.00   5.30    7.8    5.5    0.0    5.3   6.36   1.99    0.00    0.00   0.00   0.00   0.00   0.00   0.86   2.57
   17 063   132   131    8.5    0.0   0.00   5.15    8.3    5.7    0.0    5.1   6.36   1.92    0.00    0.00   0.00   0.00   0.00   0.00   0.92   2.78
   17 064   133   132    9.2    0.0   0.00   5.22    9.0    6.0    0.0    5.2   6.36   1.97    0.00    0.00   0.00   0.00   0.00   0.00   1.02   3.11
   17 065   134   133    9.6    0.0   0.00   5.19    9.5    6.2    0.0    5.2   6.36   1.97    0.00    0.00   0.00   0.00   0.00   0.00   1.08   3.33
   17 066   135   134    9.9    0.0   0.00   5.18   10.0    6.4    0.0    5.2   6.36   2.05    0.00    0.00   0.00   0.00   0.00   0.00   1.22   3.48
   17 067   136   135   10.3    0.0   0.00   5.18   10.5    6.6    0.0    5.1   6.36   1.97    0.00    0.00   0.00   0.00   0.00   0.00   1.25   3.72
   17 068   137   136   10.4    0.0   0.00   5.04   10.5    6.6    0.0    5.0   6.36   1.92    0.00    0.00   0.00   0.00   0.00   0.00   1.25   3.74
   17 069   138   137   11.1    0.0   0.00   5.14   11.5    7.0    0.0    5.1   6.36   2.04    0.00    0.00   0.00   0.00   0.00   0.00   1.49   4.11
   17 070   139   138   11.4    0.0   0.00   5.08   12.0    7.1    0.0    5.1   6.36   2.02    0.00    0.00   0.00   0.00   0.00   0.00   1.63   4.27
   17 071   140   139   12.1    0.0   0.00   5.08   12.9    7.4    0.0    5.1   6.36   2.03    0.00    0.00   0.00   0.00   0.00   0.00   1.89   4.61
   17 072   141   140   12.9    0.0   0.00   5.06   14.1    7.8    0.0    5.0   6.36   2.02    0.00    0.00   0.00   0.00   0.00   0.00   2.19   5.02
   17 073   142   141   13.8    0.0   0.00   5.03   15.1    8.3    0.0    5.0   6.36   1.96    0.00    0.00   0.00   0.00   0.00   0.00   2.32   5.48
   17 074   143   142   14.7    0.0   0.00   4.98   16.1    8.7    0.0    5.0   6.36   1.93    0.00    0.00   0.00   0.00   0.00   0.00   2.44   5.93
   17 075   144   143   16.2    0.0   0.00   4.92   18.0    9.5    0.0    4.9   6.36   1.92    0.00    0.00   0.00   0.00   0.00   0.00   2.72   6.71
   17 076   145   144   17.9    0.0   0.00   4.84   20.0   10.3    0.0    4.8   6.36   1.90    0.00    0.00   0.00   0.00   0.00   0.00   2.99   7.56
   17 077   146   145   18.6    0.0   0.00   4.84   20.8   10.6    0.0    4.8   6.36   1.92    0.00    0.00   0.00   0.00   0.00   0.00   3.10   7.91
   17 078   147   146   19.5    0.0   0.00   4.77   21.9   11.1    0.0    4.8   6.36   1.90    0.00    0.00   0.00   0.00   0.00   0.00   3.25   8.40
   17 079   148   147   21.2    0.0   0.00   4.75   23.9   11.9    0.0    4.7   6.36   1.91    0.00    0.00   0.00   0.00   0.00   0.00   3.54   9.25
   17 080   149   148   22.8    0.0   0.00   4.71   25.8   12.7    0.0    4.7   6.36   1.91    0.00    0.00   0.00   0.00   0.00   0.00   3.80  10.06
   17 081   150   149   23.6    0.0   0.00   4.71   26.7   13.1    0.0    4.7   6.36   1.92    0.00    0.00   0.00   0.00   0.00   0.00   3.92  10.44
   17 082   151   150   25.4    0.0   0.00   4.68   28.9   14.0    0.0    4.7   6.36   1.91    0.00    0.00   0.00   0.00   0.00   0.00   4.22  11.35
   17 083   152   151   26.4    0.0   0.00   4.65   30.1   14.5    0.0    4.6   6.36   1.92    0.00    0.00   0.00   0.00   0.00   0.00   4.38  11.86
   17 084   153   152   27.5    0.0   0.00   4.54   31.9   15.0    0.0    4.5   6.36   1.86    0.00    0.00   0.00   0.00   0.00   0.00   4.94  12.44
   17 085   154   153   28.7    0.0   0.00   4.56   33.6   15.6    0.0    4.6   6.36   1.91    0.00    0.00   0.00   0.00   0.00   0.00   5.47  13.03
   17 086   155   154   29.8    0.0   0.00   4.45   35.2   16.2    0.0    4.5   6.36   1.84    0.00    0.00   0.00   0.00   0.00   0.00   5.93  13.59
   17 087   156   155   30.9    0.0   0.00   4.25   36.8   16.7    0.0    4.3   6.36   1.69    0.00    0.00   0.00   0.00   0.00   0.00   6.38  14.14
   17 088   157   156   32.0    0.0   0.00   4.01   38.5   17.3    0.0    4.0   6.36   1.57    0.00    0.00   0.00   0.06   0.13   0.13   6.81  14.72
   17 089   158   157   33.2    0.0   0.00   3.88   40.1   17.9    0.0    3.9   6.36   1.49    0.00    0.00   0.00   0.15   0.28   0.28   7.29  15.34
   17 090   159   158   34.5    0.0   0.00   3.70   41.6   18.5    0.0    3.7   6.36   1.39    0.00    0.00   0.00   0.19   0.34   0.34   7.78  15.95
   17 091   160   159   35.7    0.0   0.00   3.57   43.4   19.1    0.0    3.6   6.36   1.34    0.00    0.00   0.00   0.26   0.45   0.45   8.29  16.57
   17 092   161   160   36.8    0.0   0.00   3.47   45.1   19.7    0.0    3.5   6.36   1.30    0.00    0.00   0.00   0.29   0.50   0.50   8.78  17.16
   17 093   162   161   38.0    0.0   0.00   3.41   46.8   20.2    0.0    3.5   6.36   1.28    0.00    0.00   0.00   0.33   0.55   0.55   9.26  17.73
   17 094   163   162   39.1    0.0   0.00   3.27   48.4   20.7    0.1    3.3   0.64   1.30    0.00    0.00   0.02   0.35   0.57   0.57   9.61  18.27
   17 095   164   163   40.1    0.0   0.00   3.13   49.8   21.2    0.2    3.2   0.63   1.30    0.00    0.00   0.10   0.40   0.64   0.64   9.86  18.75
   17 096   165   164   41.1    0.0   0.00   3.08   51.0   21.6    0.3    3.2   0.74   1.31    0.00    0.00   0.19   0.46   0.71   0.71  10.06  19.19
   17 097   166   165   42.0    0.0   0.00   2.94   52.1   22.0    0.4    3.1   0.70   1.29    0.00    0.00   0.20   0.47   0.72   0.72  10.21  19.58
   17 098   167   166   42.8    0.0   0.00   2.79   53.0   22.4    0.5    3.0   0.67   1.26    0.00    0.00   0.29   0.53   0.78   0.78  10.33  19.95
   17 099   168   167   43.6    0.0   0.00   2.66   53.7   22.7    0.6    2.8   0.65   1.23    0.00    0.00   0.37   0.58   0.83   0.83  10.42  20.28
   17 100   169   168   44.4    0.0   0.00   2.57   54.4   23.0    0.8    2.8   0.64   1.20    0.00    0.00   0.45   0.63   0.87   0.87  10.50  20.59
   17 101   170   169   45.1    0.0   0.00   2.52   54.9   23.3    0.9    2.7   0.67   1.19    0.00    0.00   0.51   0.68   0.90   0.90  10.56  20.87
   17 102   171   170   45.7    0.0   0.00   2.46   55.4   23.6    1.0    2.7   0.68   1.18    0.00    0.00   0.54   0.69   0.90   0.90  10.61  21.14
   17 103   172   171   46.3    0.0   0.00   2.43   55.8   23.8    1.1    2.6   0.71   1.17    0.00    0.00   0.57   0.71   0.92   0.92  10.66  21.39
   17 104   173   172   46.9    0.0   0.00   2.41   56.2   24.0    1.3    2.6   0.73   1.17    0.00    0.00   0.57   0.72   0.92   0.92  10.70  21.63
   17 105   174   173   47.5    0.0   0.00   2.38   56.6   24.2    1.4    2.6   0.74   1.16    0.00    0.00   0.57   0.72   0.92   0.92  10.73  21.85
   17 106   175   174   48.0    0.0   0.00   2.37   56.9   24.5    1.5    2.6   0.77   1.16    0.00    0.00   0.59   0.73   0.92   0.92  10.76  22.07
   17 107   176   175   49.6    0.0   0.00   2.42   58.8   25.0    1.9    2.6   0.93   1.19    0.00    0.00   0.59   0.73   0.92   0.92  11.05  22.68
   17 108   177   176   50.3    0.0   0.00   2.42   59.7   25.3    2.1    2.6   0.97   1.19    0.00    0.00   0.54   0.69   0.90   0.90  11.10  22.95
   17 109   178   177   51.0    0.0   0.00   2.42   60.6   25.6    2.2    2.6   1.01   1.20    0.00    0.00   0.53   0.69   0.90   0.90  11.17  23.22
   17 110   179   178   51.7    0.0   0.00   2.41   61.4   25.8    2.4    2.6   1.03   1.20    0.00    0.00   0.52   0.68   0.90   0.90  11.21  23.46
   17 111   180   179   52.2    0.0   0.00   2.37   62.0   26.0    2.5    2.6   1.00   1.18    0.00    0.00   0.52   0.68   0.90   0.90  11.22  23.67
   17 112   181   180   52.7    0.0   0.00   2.35   62.6   26.2    2.7    2.6   1.01   1.18    0.00    0.00   0.55   0.70   0.91   0.91  11.23  23.85
   17 113   182   181   53.1    0.0   0.00   2.33   63.2   26.3    2.8    2.6   1.01   1.17    0.00    0.00   0.55   0.70   0.91   0.91  11.23  24.02
   17 114   183   182   53.6    0.0   0.00   2.27   63.7   26.5    2.9    2.5   0.96   1.15    0.00    0.00   0.56   0.71   0.91   0.91  11.21  24.17
   17 115   184   183   54.0    0.0   0.00   2.25   64.2   26.6    3.0    2.5   0.96   1.14    0.00    0.00   0.60   0.73   0.93   0.93  11.20  24.32
   17 116   185   184   54.3    0.0   0.00   2.25   64.7   26.8    3.1    2.5   0.97   1.14    0.00    0.00   0.61   0.74   0.93   0.93  11.18  24.45
   17 117   186   185   54.6    0.0   0.00   2.25   65.1   26.9    3.2    2.5   0.98   1.15    0.00    0.00   0.61   0.74   0.93   0.93  11.14  24.57
   17 118   187   186   54.9    0.0   0.00   2.25   65.4   27.0    3.3    2.5   0.99   1.14    0.00    0.00   0.60   0.74   0.93   0.93  11.10  24.67
   17 119   188   187   55.2    0.0   0.00   2.21   65.8   27.1    3.4    2.5   0.96   1.13    0.00    0.00   0.60   0.73   0.93   0.93  11.06  24.77
   17 120   189   188   55.5    0.0   0.00   2.16   66.1   27.2    3.5    2.4   0.91   1.10    0.00    0.00   0.62   0.74   0.93   0.93  11.01  24.86
   17 121   190   189   55.7    0.0   0.00   2.13   66.4   27.2    3.5    2.4   0.90   1.09    0.00    0.00   0.65   0.77   0.95   0.95  10.95  24.94
   17 122   191   190   55.9    0.0   0.00   2.10   66.6   27.3    3.6    2.4   0.87   1.08    0.00    0.00   0.66   0.77   0.95   0.95  10.89  25.00
   17 123   192   191   56.0    0.0   0.00   2.08   66.8   27.3    3.6    2.4   0.85   1.06    0.00    0.00   0.67   0.78   0.95   0.95  10.82  25.05
   17 124   193   192   56.2    0.0   0.00   2.05   67.0   27.4    3.7    2.3   0.83   1.05    0.00    0.00   0.68   0.79   0.96   0.96  10.75  25.10
   17 125   194   193   56.3    0.0   0.00   2.02   67.2   27.4    3.8    2.3   0.80   1.04    0.00    0.00   0.69   0.79   0.96   0.96  10.68  25.15
   17 126   195   194   56.5    0.0   0.00   1.98   67.4   27.5    3.8    2.3   0.77   1.02    0.00    0.00   0.69   0.80   0.96   0.96  10.61  25.20
   17 127   196   195   56.6    0.0   0.00   1.97   67.6   27.5    3.9    2.3   0.76   1.01    0.00    0.00   0.72   0.81   0.96   0.96  10.55  25.24
   17 128   197   196   56.8    0.0   0.00   1.96   67.7   27.6    3.9    2.3   0.76   1.01    0.00    0.00   0.71   0.81   0.96   0.96  10.48  25.29
   17 129   198   197   56.9    0.0   0.00   1.94   67.9   27.6    4.0    2.2   0.74   1.00    0.00    0.00   0.71   0.81   0.96   0.96  10.42  25.33
   17 130   199   198   57.1    0.0   0.00   1.91   68.1   27.6    4.0    2.2   0.72   0.98    0.00    0.00   0.72   0.81   0.96   0.96  10.35  25.37
   17 131   200   199   57.2    0.0   0.00   1.88   68.3   27.7    4.1    2.2   0.69   0.96    0.00    0.00   0.73   0.82   0.97   0.97  10.29  25.41
   17 132   201   200   57.3    0.0   0.00   1.85   68.5   27.7    4.2    2.2   0.67   0.95    0.00    0.00   0.73   0.82   0.97   0.97  10.23  25.46
   17 133   202   201   57.5    0.0   0.00   1.83   68.7   27.8    4.2    2.2   0.66   0.94    0.00    0.00   0.73   0.82   0.97   0.97  10.18  25.50
   17 134   203   202   57.6    0.0   0.00   1.81   68.9   27.8    4.3    2.2   0.64   0.93    0.00    0.00   0.73   0.82   0.97   0.97  10.12  25.53
   17 135   204   203   57.8    0.0   0.00   1.78   69.1   27.8    4.4    2.1   0.63   0.91    0.00    0.00   0.73   0.82   0.97   0.97  10.07  25.57
   17 136   205   204   57.9    0.0   0.00   1.76   69.3   27.9    4.5    2.1   0.61   0.90    0.00    0.00   0.73   0.82   0.97   0.97  10.03  25.61
   17 137   206   205   58.1    0.0   0.00   1.73   69.6   27.9    4.6    2.1   0.58   0.89    0.00    0.00   0.71   0.81   0.96   0.96  10.00  25.65
   17 138   207   206   58.4    0.0   0.00   1.70   69.9   27.9    4.7    2.1   0.55   0.88    0.00    0.00   0.69   0.79   0.96   0.96   9.99  25.68
   17 139   208   207   58.6    0.0   0.00   1.68   70.2   27.9    4.9    2.1   0.54   0.88    0.00    0.00   0.66   0.77   0.95   0.95   9.97  25.71
   17 140   209   208   58.8    0.0   0.00   1.66   70.4   28.0    5.1    2.1   0.51   0.87    0.00    0.00   0.64   0.76   0.94   0.94   9.97  25.73
   17 141   210   209   59.0    0.0   0.00   1.63   70.8   28.0    5.2    2.1   0.50   0.87    0.00    0.00   0.64   0.76   0.94   0.94   9.96  25.75
   17 142   211   210   59.2    0.0   0.00   1.60   71.1   28.0    5.4    2.1   0.48   0.86    0.00    0.00   0.62   0.75   0.94   0.94   9.96  25.76
   17 143   212   211   59.4    0.0   0.00   1.57   71.4   28.0    5.6    2.1   0.46   0.85    0.00    0.00   0.60   0.73   0.93   0.93   9.97  25.77
   17 144   213   212   60.7    0.0   0.00   1.58   73.4   28.0    7.0    2.1   0.54   0.89    0.00    0.00   0.59   0.73   0.93   0.93  10.54  25.77
   17 145   214   213   62.1    0.0   0.00   1.58   75.5   28.0    8.4    2.1   0.61   0.93    0.00    0.00   0.51   0.67   0.89   0.89  11.14  25.77
   17 146   215   214   63.1    0.0   0.00   1.55   77.0   28.0    9.4    2.1   0.62   0.94    0.00    0.00   0.43   0.62   0.86   0.86  11.51  25.77
   17 147   216   215   63.7    0.0   0.00   1.51   77.8   28.0    9.9    2.1   0.60   0.94    0.00    0.00   0.40   0.60   0.84   0.84  11.66  25.77
   17 148   217   216   64.0    0.0   0.00   1.47   78.3   28.0   10.3    2.1   0.57   0.92    0.00    0.00   0.39   0.59   0.83   0.83  11.69  25.77
   17 149   218   217   64.3    0.0   0.00   1.43   78.7   28.0   10.5    2.1   0.55   0.91    0.00    0.00   0.37   0.58   0.82   0.82  11.70  25.77
   17 150   219   218   68.4    0.0   0.00   1.48   84.7   28.0   14.6    2.1   0.71   1.03    0.00    0.00   0.32   0.55   0.80   0.80  13.46  25.77
   17 151   220   219   72.5    0.0   0.00   1.51   90.7   28.0   18.7    2.1   0.84   1.13    0.00    0.00   0.02   0.35   0.58   0.58  15.20  25.77
   17 152   221   220   74.9    0.0   0.00   1.50   94.2   28.0   21.2    2.1   0.87   1.19    0.00    0.00   0.00   0.18   0.32   0.32  16.11  25.77
   17 153   222   221   76.1    0.0   0.00   1.46   95.8   28.0   22.3    2.1   0.85   1.20    0.00    0.00   0.00   0.02   0.05   0.05  16.44  25.77
   17 154   223   222   80.2    0.0   0.00   1.48  101.8   28.0   26.5    2.1   0.93   1.32    0.00    0.00   0.00   0.00   0.00   0.00  18.08  25.77
   17 155   224   223   82.5    0.0   0.00   1.49  105.1   28.0   28.7    2.1   0.96   1.38    0.00    0.00   0.00   0.00   0.00   0.00  18.94  25.77
   17 156   225   224   85.9    0.0   0.00   1.51  110.3   28.0   32.2    2.1   1.03   1.48    0.00    0.00   0.00   0.00   0.00   0.00  20.43  25.77
   17 157   226   225   87.9    0.0   0.00   1.52  113.4   28.0   34.2    2.1   1.06   1.55    0.00    0.00   0.00   0.00   0.00   0.00  21.32  25.77
   17 158   227   226   89.4    0.0   0.00   1.50  115.7   28.0   35.7    2.1   1.05   1.59    0.00    0.00   0.00   0.00   0.00   0.00  21.93  25.77
   17 159   228   227   89.9    0.0   0.00   1.45  116.5   28.0   36.2    2.1   1.00   1.58    0.00    0.00   0.00   0.00   0.00   0.00  21.98  25.77
   17 160   229   228   90.3    0.0   0.00   1.42  117.2   28.0   36.6    2.1   0.96   1.58    0.00    0.00   0.00   0.00   0.00   0.00  22.06  25.77
   17 161   230   229   90.7    0.0   0.00   1.37  117.9   28.0   36.9    2.1   0.92   1.57    0.00    0.00   0.00   0.00   0.00   0.00  22.17  25.77
   17 162   231   230   90.9    0.0   0.00   1.33  118.5   28.0   37.2    2.1   0.87   1.57    0.00    0.00   0.00   0.00   0.00   0.00  22.30  25.77
   17 163   232   231   90.9    0.0   0.00   1.30  119.0   28.0   37.2    2.1   0.84   1.59    0.00    0.00   0.00   0.00   0.00   0.00  22.61  25.77
   17 164   233   232   90.9    0.0   0.00   1.26  120.2   28.0   37.2    2.1   0.80   1.64    0.00    0.00   0.00   0.00   0.00   0.00  23.55  25.77
   17 165   234   233   91.4   15.6   2.40   1.12  120.9   26.1   29.5    2.0   0.70   1.63    0.00    0.00   0.00   0.00   0.00   0.00  23.56  20.14
   17 166   235   234   92.8   19.1   2.22   1.10  124.1   24.1   30.8    1.8   0.74   1.72    0.00    0.00   0.00   0.00   0.00   0.00  25.12  18.78
   17 167   236   235   92.8   22.2   2.01   1.06  124.5   22.5   30.5    1.7   0.75   1.72    0.00    0.00   0.00   0.00   0.00   0.00  25.23  17.68
   17 168   237   236   92.8   25.0   1.88   1.03  124.8   21.1   30.1    1.6   0.75   1.72    0.00    0.00   0.00   0.00   0.00   0.00  25.32  16.72
   17 169   238   237   92.8   27.8   1.81   0.99  125.2   19.7   29.6    1.5   0.74   1.72    0.00    0.00   0.00   0.00   0.00   0.00  25.46  15.76
   17 170   239   238   92.8   31.3   1.78   0.94  125.5   18.0   28.9    1.4   0.73   1.72    0.00    0.00   0.00   0.00   0.00   0.00  25.60  14.58
   17 171   240   239   92.8   35.3   1.78   0.90  125.6   16.1   28.1    1.2   0.73   1.72    0.00    0.00   0.00   0.00   0.00   0.00  25.63  13.32
   17 172   241   240   92.8   39.3   1.77   0.85  125.7   14.4   27.1    1.1   0.72   1.72    0.00    0.00   0.00   0.00   0.00   0.00  25.59  12.10
   17 173   242   241   92.8   43.5   1.77   0.80  125.9   12.7   25.8    1.0   0.71   1.72    0.00    0.00   0.00   0.00   0.00   0.00  25.56  10.89
   17 174   243   242   92.8   47.3   1.75   0.75  126.1   11.2   24.4    0.9   0.69   1.72    0.00    0.00   0.00   0.00   0.00   0.00  25.47   9.85
   17 175   244   243   92.8   50.8   1.71   0.70  126.2   10.0   23.0    0.8   0.68   1.71    0.00    0.00   0.00   0.00   0.00   0.00  25.38   8.99
   17 176   245   244   92.8   53.8   1.68   0.67  126.3    9.1   21.6    0.7   0.66   1.71    0.00    0.00   0.00   0.00   0.00   0.00  25.22   8.31
   17 177   246   245   93.9   57.6   1.67   0.63  127.5    8.4   20.2    0.6   0.63   1.71    0.00    0.00   0.00   0.00   0.00   0.00  25.14   7.76
   17 178   247   246   95.2   61.1   1.64   0.61  128.9    7.9   18.9    0.6   0.63   1.71    0.00    0.00   0.00   0.00   0.00   0.00  24.95   7.34
   17 179   248   247   96.7   64.5   1.62   0.59  130.3    7.4   17.7    0.6   0.61   1.70    0.00    0.00   0.00   0.00   0.00   0.00  24.75   7.01
   17 180   249   248   98.0   67.5   1.59   0.57  131.6    7.1   16.6    0.5   0.60   1.70    0.00    0.00   0.00   0.00   0.00   0.00  24.51   6.74
   17 181   250   249   99.4   70.6   1.59   0.55  133.1    6.9   15.5    0.5   0.57   1.70    0.00    0.00   0.00   0.00   0.00   0.00  24.25   6.52
   17 182   251   250  101.1   73.5   1.61   0.52  134.6    6.7   14.6    0.5   0.54   1.70    0.00    0.00   0.00   0.00   0.00   0.00  23.99   6.33
   17 183   252   251  102.8   76.3   1.64   0.50  136.2    6.5   14.0    0.5   0.51   1.70    0.00    0.00   0.00   0.00   0.00   0.00  23.74   6.16
   17 184   253   252  104.9   79.2   1.66   0.49  138.0    6.3   13.4    0.5   0.49   1.70    0.00    0.00   0.00   0.00   0.00   0.00  23.49   6.00
   17 185   254   253  107.0   82.0   1.67   0.47  139.5    6.1   13.0    0.5   0.48   1.69    0.00    0.00   0.00   0.00   0.00   0.00  23.12   5.85
   17 186   255   254  109.0   84.8   1.68   0.46  140.1    6.0   12.5    0.5   0.46   1.61    0.00    0.00   0.00   0.00   0.00   0.00  21.89   5.69
   17 187   256   255  110.6   87.1   1.69   0.44  140.1    5.8   12.1    0.4   0.45   1.52    0.00    0.00   0.00   0.00   0.00   0.00  20.42   5.53
   17 188   257   256  111.8   89.0   1.70   0.43  140.1    5.6   11.8    0.4   0.43   1.46    0.00    0.00   0.00   0.00   0.00   0.00  19.41   5.37
   17 189   258   257  112.7   90.7   1.70   0.42  140.1    5.4   11.4    0.4   0.42   1.42    0.00    0.00   0.00   0.00   0.00   0.00  18.69   5.19
   17 190   259   258  113.4   92.1   1.70   0.40  144.1    5.3   11.0    0.4   0.40   1.69    0.00    0.00   0.00   0.00   0.00   0.00  22.03   5.02
   17 191   260   259  115.3   94.8   1.73   0.39  146.0    5.1   10.6    0.4   0.39   1.69    0.00    0.00   0.00   0.00   0.00   0.00  21.79   4.86
   17 192   261   260  117.4   97.4   1.75   0.38  147.9    5.0   10.3    0.4   0.38   1.69    0.00    0.00   0.00   0.00   0.00   0.00  21.56   4.75
   17 193   262   261  119.5   99.9   1.78   0.37  149.8    4.8   10.1    0.4   0.37   1.69    0.00    0.00   0.00   0.00   0.00   0.00  21.33   4.63
   17 194   263   262  121.7  102.5   1.80   0.36  151.9    4.8    9.9    0.4   0.36   1.69    0.00    0.00   0.00   0.00   0.00   0.00  21.11   4.54
   17 195   264   263  123.6  104.8   1.82   0.36  153.7    4.7    9.7    0.4   0.36   1.69    0.00    0.00   0.00   0.00   0.00   0.00  20.89   4.46
   17 196   265   264  125.3  106.8   1.84   0.35  155.2    4.6    9.5    0.3   0.35   1.69    0.00    0.00   0.00   0.00   0.00   0.00  20.67   4.38
   17 197   266   265  127.2  109.1   1.86   0.34  157.0    4.5    9.4    0.3   0.34   1.68    0.00    0.00   0.00   0.00   0.00   0.00  20.46   4.30
   17 198   267   266  128.5  110.8   1.87   0.34  158.1    4.4    9.2    0.3   0.34   1.68    0.00    0.00   0.00   0.00   0.00   0.00  20.24   4.20
   17 199   268   267  129.5  112.2   1.89   0.33  158.9    4.3    8.9    0.3   0.33   1.68    0.00    0.00   0.00   0.00   0.00   0.00  20.02   4.11
   17 200   269   268  129.9  113.0   1.89   0.32  159.2    4.2    8.7    0.3   0.32   1.68    0.00    0.00   0.00   0.00   0.00   0.00  19.82   4.00
   17 201   270   269  129.9  113.1   1.89   0.32  159.2    4.1    8.6    0.3   0.32   1.68    0.00    0.00   0.00   0.00   0.00   0.00  19.63   3.97
   17 202   271   270  129.9  113.1   1.89   0.32  159.2    4.1    8.6    0.3   0.32   1.68    0.00    0.00   0.00   0.00   0.00   0.00  19.43   3.97
   17 203   272   271  129.9  113.1   1.89   0.32  159.2    4.1    8.6    0.3   0.32   1.68    0.00    0.00   0.00   0.00   0.00   0.00  19.43   3.97
   17 204   273   272  129.9  113.1   1.89   0.32  159.2    4.1    8.6    0.3   0.32   1.68    0.00    0.00   0.00   0.00   0.00   0.00  19.43   3.97
   17 205   274   273  129.9  113.1   1.89   0.32  159.2    4.1    8.6    0.3   0.32   1.68    0.00    0.00   0.00   0.00   0.00   0.00  19.43   3.97
   17 206   275   274  129.9  113.1   1.89   0.32  159.2    4.1    8.6    0.3   0.32   1.68    0.00    0.00   0.00   0.00   0.00   0.00  19.43   3.97
   17 207   276   275  129.9  113.1   1.89   0.32  159.2    4.1    8.6    0.3   0.32   1.68    0.00    0.00   0.00   0.00   0.00   0.00  19.43   3.97
   17 208   277   276  129.9  113.1   1.89   0.32  159.2    4.1    8.6    0.3   0.32   1.68    0.00    0.00   0.00   0.00   0.00   0.00  19.43   3.97
   17 209   278   277  129.9  113.1   1.89   0.32  159.2    4.1    8.6    0.3   0.32   1.68    0.00    0.00   0.00   0.00   0.00   0.00  19.43   3.97
   17 210   279   278  129.9  113.1   1.89   0.32  159.2    4.1    8.6    0.3   0.32   1.68    0.00    0.00   0.00   0.00   0.00   0.00  19.43   3.97
   17 211   280   279  129.9  113.1   1.89   0.32  159.2    4.1    8.6    0.3   0.32   1.68    0.00    0.00   0.00   0.00   0.00   0.00  19.43   3.97
   17 212   281   280  129.9  113.1   1.89   0.32  159.2    4.1    8.6    0.3   0.32   1.68    0.00    0.00   0.00   0.00   0.00   0.00  19.43   3.97
   17 213   282   281  129.9  113.1   1.89   0.32  159.2    4.1    8.6    0.3   0.32   1.68    0.00    0.00   0.00   0.00   0.00   0.00  19.43   3.97
   17 214   283   282  129.9  113.1   1.89   0.32  159.2    4.1    8.6    0.3   0.32   1.68    0.00    0.00   0.00   0.00   0.00   0.00  19.43   3.97
   17 215   284   283  129.9  113.1   1.89   0.32  159.2    4.1    8.6    0.3   0.32   1.68    0.00    0.00   0.00   0.00   0.00   0.00  19.43   3.97
   17 216   285   284  129.9  113.1   1.89   0.32  159.2    4.1    8.6    0.3   0.32   1.68    0.00    0.00   0.00   0.00   0.00   0.00  19.43   3.97
   17 217   286   285  129.9  113.1   1.89   0.32  159.2    4.1    8.6    0.3   0.32   1.68    0.00    0.00   0.00   0.00   0.00   0.00  19.43   3.97
   17 218   287   286  129.9  113.1   1.89   0.32  159.2    4.1    8.6    0.3   0.32   1.68    0.00    0.00   0.00   0.00   0.00   0.00  19.43   3.97
   17 219   288   287  129.9  113.1   1.89   0.32  159.2    4.1    8.6    0.3   0.32   1.68    0.00    0.00   0.00   0.00   0.00   0.00  19.43   3.97

*DSSAT Cropping System Model Ver. 4.8.5.000 -release  NOV 27, 2025 15:48:48

*RUN   2        : 2                         WHAPS048 TUDU1701    2
 MODEL          : WHAPS048 - Wheat
 EXPERIMENT     : TUDU1701 WH
 DATA PATH      :
 TREATMENT  2   : 2                         WHAPS048
  
@YEAR DOY   DAS   DAP   CNAD   GNAD   GN%D   VN%D   NUPC   LNAD   SNAD   LN%D   SN%D   RN%D   SNN0C   SNN1C NFact1 NFact2 NFact3 NFact4  RootN lfshthN
   16 298     1     0    0.0    0.0   0.00   0.00    0.0    0.0    0.0    0.0   0.00   0.00    0.00    0.00   0.00   0.00   0.00   0.00   0.00   0.00
   16 299     2     1    0.0    0.0   0.00   0.00    0.0    0.0    0.0    0.0   0.00   0.00    0.00    0.00   0.00   0.00   0.00   0.00   0.00   0.00
   16 300     3     2    0.0    0.0   0.00   0.00    0.0    0.0    0.0    0.0   0.00   0.00    0.00    0.00   0.00   0.00   0.00   0.00   0.00   0.00
   16 301     4     3    0.0    0.0   0.00   0.00    0.0    0.0    0.0    0.0   0.00   0.00    0.00    0.00   0.00   0.00   0.00   0.00   0.00   0.00
   16 302     5     4    0.0    0.0   0.00   0.00    0.0    0.0    0.0    0.0   0.00   0.00    0.00    0.00   0.00   0.00   0.00   0.00   0.00   0.00
   16 303     6     5    0.0    0.0   0.00   0.00    0.0    0.0    0.0    0.0   0.00   0.00    0.00    0.00   0.00   0.00   0.00   0.00   0.00   0.00
   16 304     7     6    0.0    0.0   0.00   0.00    0.0    0.0    0.0    0.0   0.00   0.00    0.00    0.00   0.00   0.00   0.00   0.00   0.00   0.00
   16 305     8     7    0.0    0.0   0.00   0.00    0.0    0.0    0.0    0.0   0.00   0.00    0.00    0.00   0.00   0.00   0.00   0.00   0.00   0.00
   16 306     9     8    0.0    0.0   0.00   0.00    0.0    0.0    0.0    0.0   0.00   0.00    0.00    0.00   0.00   0.00   0.00   0.00   0.00   0.00
   16 307    10     9    0.0    0.0   0.00   0.00    0.0    0.0    0.0    0.0   0.00   0.00    0.00    0.00   0.00   0.00   0.00   0.00   0.00   0.00
   16 308    11    10    0.0    0.0   0.00   0.00    0.0    0.0    0.0    0.0   0.00   0.00    0.00    0.00   0.00   0.00   0.00   0.00   0.00   0.00
   16 309    12    11    0.0    0.0   0.00   0.00    0.0    0.0    0.0    0.0   0.00   0.00    0.00    0.00   0.00   0.00   0.00   0.00   0.00   0.00
   16 310    13    12    0.0    0.0   0.00   0.00    0.0    0.0    0.0    0.0   0.00   0.00    0.00    0.00   0.00   0.00   0.00   0.00   0.00   0.00
   16 311    14    13    0.0    0.0   0.00   0.00    0.0    0.0    0.0    0.0   0.00   0.00    0.00    0.00   0.00   0.00   0.00   0.00   0.00   0.00
   16 312    15    14    1.0    0.0   0.00  10.60    0.2    0.6    0.0    6.3   6.36   4.49    0.00    0.00   0.00   0.00   0.00   0.00   1.07   0.41
   16 313    16    15    1.0    0.0   0.00  10.48    0.2    0.6    0.0    6.3   6.36   4.47    0.00    0.00   0.00   0.00   0.00   0.00   1.06   0.41
   16 314    17    16    1.0    0.0   0.00  10.26    0.2    0.6    0.0    6.3   6.36   4.42    0.00    0.00   0.00   0.00   0.00   0.00   1.05   0.41
   16 315    18    17    1.0    0.0   0.00   9.51    0.2    0.6    0.0    5.9   6.36   4.40    0.00    0.00   0.00   0.00   0.00   0.00   1.04   0.41
   16 316    19    18    1.1    0.0   0.00   9.38    0.2    0.6    0.0    6.0   6.36   4.37    0.00    0.00   0.00   0.00   0.00   0.00   1.03   0.41
   16 317    20    19    1.1    0.0   0.00   9.44    0.3    0.7    0.0    6.2   6.36   4.34    0.00    0.00   0.00   0.00   0.00   0.00   1.02   0.41
   16 318    21    20    1.1    0.0   0.00   9.50    0.3    0.7    0.0    6.3   6.36   4.34    0.00    0.00   0.00   0.00   0.00   0.00   1.01   0.41
   16 319    22    21    1.1    0.0   0.00   9.50    0.3    0.7    0.0    6.3   6.36   4.34    0.00    0.00   0.00   0.00   0.00   0.00   1.00   0.41
   16 320    23    22    1.1    0.0   0.00   9.06    0.3    0.7    0.0    6.1   6.36   4.31    0.00    0.00   0.00   0.00   0.00   0.00   0.99   0.41
   16 321    24    23    1.1    0.0   0.00   7.13    0.3    0.7    0.0    4.8   6.36   4.29    0.00    0.00   0.00   0.00   0.00   0.00   0.98   0.41
   16 322    25    24    1.3    0.0   0.00   6.68    0.5    0.9    0.0    4.9   6.36   4.25    0.00    0.00   0.00   0.00   0.00   0.00   0.97   0.41
   16 323    26    25    1.5    0.0   0.00   5.69    0.6    1.0    0.0    4.3   6.36   4.22    0.00    0.00   0.00   0.00   0.00   0.00   0.96   0.41
   16 324    27    26    1.5    0.0   0.00   5.61    0.7    1.1    0.0    4.3   6.36   4.20    0.00    0.00   0.00   0.00   0.00   0.00   0.95   0.41
   16 325    28    27    1.6    0.0   0.00   5.44    0.8    1.2    0.0    4.3   6.36   4.12    0.00    0.00   0.00   0.00   0.00   0.00   0.94   0.41
   16 326    29    28    1.7    0.0   0.00   4.67    0.9    1.3    0.0    3.8   6.36   4.05    0.00    0.00   0.00   0.00   0.00   0.00   0.93   0.41
   16 327    30    29    1.8    0.0   0.00   4.32    1.0    1.4    0.0    3.6   6.36   4.00    0.00    0.00   0.08   0.39   0.63   0.63   0.92   0.41
   16 328    31    30    1.9    0.0   0.00   4.16    1.1    1.5    0.0    3.5   6.36   3.95    0.00    0.00   0.22   0.48   0.73   0.73   0.91   0.41
   16 329    32    31    2.0    0.0   0.00   4.10    1.2    1.6    0.0    3.5   6.36   3.93    0.00    0.00   0.29   0.52   0.77   0.77   0.90   0.41
   16 330    33    32    2.1    0.0   0.00   3.96    1.2    1.6    0.0    3.4   6.36   3.91    0.00    0.00   0.31   0.54   0.79   0.79   0.89   0.41
   16 331    34    33    2.1    0.0   0.00   3.85    1.3    1.7    0.0    3.3   6.36   3.89    0.00    0.00   0.36   0.57   0.82   0.82   0.88   0.41
   16 332    35    34    2.2    0.0   0.00   3.80    1.3    1.7    0.0    3.3   6.36   3.86    0.00    0.00   0.40   0.60   0.84   0.84   0.87   0.41
   16 333    36    35    2.2    0.0   0.00   3.91    1.4    1.8    0.0    3.4   6.36   3.86    0.00    0.00   0.42   0.61   0.85   0.85   0.87   0.41
   16 334    37    36    2.3    0.0   0.00   4.00    1.5    1.9    0.0    3.5   6.36   3.86    0.00    0.00   0.38   0.58   0.83   0.83   0.86   0.41
   16 335    38    37    2.4    0.0   0.00   4.09    1.5    1.9    0.0    3.6   6.36   3.86    0.00    0.00   0.34   0.56   0.80   0.80   0.85   0.41
   16 336    39    38    2.4    0.0   0.00   4.12    1.6    2.0    0.0    3.6   6.36   3.84    0.00    0.00   0.30   0.53   0.78   0.78   0.84   0.41
   16 337    40    39    2.5    0.0   0.00   4.11    1.6    2.0    0.0    3.6   6.36   3.81    0.00    0.00   0.28   0.52   0.77   0.77   0.83   0.41
   16 338    41    40    2.5    0.0   0.00   4.20    1.7    2.1    0.0    3.7   6.36   3.81    0.00    0.00   0.28   0.52   0.77   0.77   0.82   0.41
   16 339    42    41    2.5    0.0   0.00   4.28    1.7    2.1    0.0    3.8   6.36   3.81    0.00    0.00   0.25   0.50   0.75   0.75   0.82   0.41
   16 340    43    42    2.6    0.0   0.00   4.35    1.7    2.2    0.0    3.9   6.36   3.81    0.00    0.00   0.21   0.48   0.73   0.73   0.81   0.41
   16 341    44    43    2.6    0.0   0.00   4.41    1.8    2.2    0.0    4.0   6.36   3.81    0.00    0.00   0.19   0.46   0.71   0.71   0.80   0.41
   16 342    45    44    2.7    0.0   0.00   4.47    1.8    2.2    0.0    4.0   6.36   3.81    0.00    0.00   0.16   0.44   0.69   0.69   0.79   0.41
   16 343    46    45    2.7    0.0   0.00   4.52    1.9    2.3    0.0    4.1   6.36   3.81    0.00    0.00   0.13   0.42   0.66   0.66   0.78   0.41
   16 344    47    46    2.7    0.0   0.00   4.50    1.9    2.3    0.0    4.1   6.36   3.79    0.00    0.00   0.10   0.40   0.64   0.64   0.78   0.41
   16 345    48    47    2.8    0.0   0.00   4.35    1.9    2.3    0.0    4.0   6.36   3.72    0.00    0.00   0.11   0.40   0.65   0.65   0.77   0.41
   16 346    49    48    2.8    0.0   0.00   4.36    1.9    2.3    0.0    4.0   6.36   3.69    0.00    0.00   0.17   0.45   0.69   0.69   0.76   0.41
   16 347    50    49    2.8    0.0   0.00   4.35    2.0    2.4    0.0    4.0   6.36   3.67    0.00    0.00   0.16   0.44   0.69   0.69   0.75   0.41
   16 348    51    50    2.8    0.0   0.00   4.35    2.0    2.4    0.0    4.0   6.36   3.63    0.00    0.00   0.16   0.44   0.69   0.69   0.74   0.41
   16 349    52    51    2.9    0.0   0.00   4.19    2.0    2.4    0.0    3.9   6.36   3.58    0.00    0.00   0.16   0.44   0.69   0.69   0.74   0.41
   16 350    53    52    2.9    0.0   0.00   4.21    2.1    2.5    0.0    3.9   6.36   3.56    0.00    0.00   0.23   0.49   0.74   0.74   0.73   0.41
   16 351    54    53    2.9    0.0   0.00   4.25    2.1    2.5    0.0    4.0   6.36   3.56    0.00    0.00   0.22   0.48   0.73   0.73   0.72   0.41
   16 352    55    54    3.0    0.0   0.00   4.29    2.1    2.5    0.0    4.0   6.36   3.56    0.00    0.00   0.20   0.47   0.72   0.72   0.72   0.41
   16 353    56    55    3.0    0.0   0.00   4.32    2.1    2.5    0.0    4.0   6.36   3.56    0.00    0.00   0.18   0.46   0.70   0.70   0.71   0.41
   16 354    57    56    3.0    0.0   0.00   4.36    2.2    2.6    0.0    4.1   6.36   3.56    0.00    0.00   0.17   0.44   0.69   0.69   0.70   0.41
   16 355    58    57    3.0    0.0   0.00   4.39    2.2    2.6    0.0    4.1   6.36   3.56    0.00    0.00   0.15   0.43   0.68   0.68   0.69   0.41
   16 356    59    58    3.0    0.0   0.00   4.42    2.2    2.6    0.0    4.1   6.36   3.56    0.00    0.00   0.14   0.42   0.67   0.67   0.69   0.41
   16 357    60    59    3.1    0.0   0.00   4.45    2.2    2.6    0.0    4.2   6.36   3.56    0.00    0.00   0.12   0.41   0.66   0.66   0.68   0.41
   16 358    61    60    3.1    0.0   0.00   4.48    2.2    2.6    0.0    4.2   6.36   3.56    0.00    0.00   0.11   0.40   0.65   0.65   0.67   0.41
   16 359    62    61    3.1    0.0   0.00   4.48    2.3    2.7    0.0    4.2   6.36   3.53    0.00    0.00   0.09   0.39   0.63   0.63   0.67   0.41
   16 360    63    62    3.1    0.0   0.00   4.48    2.3    2.7    0.0    4.2   6.36   3.49    0.00    0.00   0.08   0.39   0.62   0.62   0.66   0.41
   16 361    64    63    3.1    0.0   0.00   4.47    2.3    2.7    0.0    4.3   6.36   3.45    0.00    0.00   0.08   0.38   0.62   0.62   0.65   0.41
   16 362    65    64    3.2    0.0   0.00   4.47    2.3    2.7    0.0    4.3   6.36   3.41    0.00    0.00   0.08   0.38   0.62   0.62   0.65   0.41
   16 363    66    65    3.2    0.0   0.00   4.48    2.3    2.7    0.0    4.3   6.36   3.38    0.00    0.00   0.08   0.38   0.62   0.62   0.64   0.41
   16 364    67    66    3.2    0.0   0.00   4.48    2.4    2.8    0.0    4.3   6.36   3.32    0.00    0.00   0.07   0.38   0.62   0.62   0.63   0.41
   16 365    68    67    3.2    0.0   0.00   4.51    2.4    2.8    0.0    4.3   6.36   3.32    0.00    0.00   0.07   0.38   0.61   0.61   0.63   0.41
   16 366    69    68    3.2    0.0   0.00   4.54    2.4    2.8    0.0    4.4   6.36   3.32    0.00    0.00   0.05   0.37   0.60   0.60   0.62   0.41
   17 001    70    69    3.3    0.0   0.00   4.57    2.4    2.8    0.0    4.4   6.36   3.32    0.00    0.00   0.04   0.36   0.59   0.59   0.62   0.41
   17 002    71    70    3.3    0.0   0.00   4.60    2.4    2.8    0.0    4.4   6.36   3.32    0.00    0.00   0.03   0.35   0.58   0.58   0.61   0.41
   17 003    72    71    3.3    0.0   0.00   4.62    2.5    2.9    0.0    4.5   6.36   3.32    0.00    0.00   0.01   0.34   0.57   0.57   0.60   0.41
   17 004    73    72    3.3    0.0   0.00   4.65    2.5    2.9    0.0    4.5   6.36   3.32    0.00    0.00   0.00   0.33   0.56   0.56   0.60   0.41
   17 005    74    73    3.3    0.0   0.00   4.67    2.5    2.9    0.0    4.5   6.36   3.32    0.00    0.00   0.00   0.33   0.55   0.55   0.59   0.41
   17 006    75    74    3.4    0.0   0.00   4.70    2.5    2.9    0.0    4.6   6.36   3.32    0.00    0.00   0.00   0.32   0.54   0.54   0.59   0.41
   17 007    76    75    3.4    0.0   0.00   4.72    2.5    2.9    0.0    4.6   6.36   3.32    0.00    0.00   0.00   0.31   0.53   0.53   0.58   0.41
   17 008    77    76    3.4    0.0   0.00   4.74    2.5    3.0    0.0    4.6   6.36   3.32    0.00    0.00   0.00   0.30   0.52   0.52   0.57   0.41
   17 009    78    77    3.4    0.0   0.00   4.77    2.6    3.0    0.0    4.6   6.36   3.32    0.00    0.00   0.00   0.30   0.51   0.51   0.57   0.41
   17 010    79    78    3.4    0.0   0.00   4.79    2.6    3.0    0.0    4.7   6.36   3.32    0.00    0.00   0.00   0.29   0.50   0.50   0.56   0.41
   17 011    80    79    3.4    0.0   0.00   4.81    2.6    3.0    0.0    4.7   6.36   3.32    0.00    0.00   0.00   0.28   0.49   0.49   0.56   0.41
   17 012    81    80    3.5    0.0   0.00   4.81    2.6    3.0    0.0    4.7   6.36   3.30    0.00    0.00   0.00   0.28   0.47   0.47   0.55   0.41
   17 013    82    81    3.5    0.0   0.00   4.81    2.6    3.0    0.0    4.7   6.36   3.27    0.00    0.00   0.00   0.27   0.47   0.47   0.55   0.41
   17 014    83    82    3.5    0.0   0.00   4.83    2.6    3.0    0.0    4.7   6.36   3.27    0.00    0.00   0.00   0.27   0.47   0.47   0.54   0.41
   17 015    84    83    3.5    0.0   0.00   4.85    2.7    3.1    0.0    4.7   6.36   3.27    0.00    0.00   0.00   0.27   0.46   0.46   0.53   0.41
   17 016    85    84    3.5    0.0   0.00   4.87    2.7    3.1    0.0    4.8   6.36   3.27    0.00    0.00   0.00   0.26   0.45   0.45   0.53   0.41
   17 017    86    85    3.5    0.0   0.00   4.89    2.7    3.1    0.0    4.8   6.36   3.27    0.00    0.00   0.00   0.25   0.44   0.44   0.52   0.41
   17 018    87    86    3.5    0.0   0.00   4.91    2.7    3.1    0.0    4.8   6.36   3.27    0.00    0.00   0.00   0.25   0.43   0.43   0.52   0.41
   17 019    88    87    3.6    0.0   0.00   4.93    2.7    3.1    0.0    4.8   6.36   3.27    0.00    0.00   0.00   0.24   0.43   0.43   0.51   0.41
   17 020    89    88    3.6    0.0   0.00   4.95    2.7    3.1    0.0    4.9   6.36   3.27    0.00    0.00   0.00   0.24   0.42   0.42   0.51   0.41
   17 021    90    89    3.6    0.0   0.00   4.97    2.7    3.1    0.0    4.9   6.36   3.27    0.00    0.00   0.00   0.23   0.41   0.41   0.50   0.42
   17 022    91    90    3.6    0.0   0.00   4.99    2.8    3.2    0.0    4.9   6.36   3.27    0.00    0.00   0.00   0.22   0.40   0.40   0.50   0.42
   17 023    92    91    3.6    0.0   0.00   5.01    2.8    3.2    0.0    4.9   6.36   3.27    0.00    0.00   0.00   0.22   0.39   0.39   0.49   0.42
   17 024    93    92    3.6    0.0   0.00   5.02    2.8    3.2    0.0    4.9   6.36   3.27    0.00    0.00   0.00   0.21   0.38   0.38   0.49   0.42
   17 025    94    93    3.6    0.0   0.00   5.04    2.8    3.2    0.0    5.0   6.36   3.27    0.00    0.00   0.00   0.21   0.37   0.37   0.48   0.42
   17 026    95    94    3.7    0.0   0.00   5.06    2.8    3.2    0.0    5.0   6.36   3.27    0.00    0.00   0.00   0.20   0.36   0.36   0.48   0.42
   17 027    96    95    3.7    0.0   0.00   5.08    2.8    3.2    0.0    5.0   6.36   3.27    0.00    0.00   0.00   0.20   0.36   0.36   0.47   0.42
   17 028    97    96    3.7    0.0   0.00   5.10    2.8    3.2    0.0    5.0   6.36   3.27    0.00    0.00   0.00   0.19   0.35   0.35   0.47   0.42
   17 029    98    97    3.7    0.0   0.00   5.11    2.8    3.3    0.0    5.0   6.36   3.27    0.00    0.00   0.00   0.19   0.34   0.34   0.46   0.42
   17 030    99    98    3.7    0.0   0.00   5.13    2.9    3.3    0.0    5.1   6.36   3.27    0.00    0.00   0.00   0.18   0.33   0.33   0.46   0.42
   17 031   100    99    3.7    0.0   0.00   5.08    2.9    3.3    0.0    5.0   6.36   3.17    0.00    0.00   0.00   0.17   0.32   0.32   0.46   0.42
   17 032   101   100    3.7    0.0   0.00   5.07    2.9    3.3    0.0    5.0   6.36   3.13    0.00    0.00   0.00   0.19   0.34   0.34   0.45   0.42
   17 033   102   101    3.7    0.0   0.00   5.02    2.9    3.3    0.0    5.0   6.36   3.04    0.00    0.00   0.00   0.19   0.34   0.34   0.45   0.42
   17 034   103   102    3.8    0.0   0.00   5.01    2.9    3.3    0.0    5.0   6.36   2.99    0.00    0.00   0.00   0.20   0.36   0.36   0.44   0.42
   17 035   104   103    4.4    0.0   0.00   5.77    3.6    3.8    0.0    5.7   6.36   2.86    0.00    0.00   0.00   0.20   0.36   0.36   0.44   0.58
   17 036   105   104    4.5    0.0   0.00   5.74    3.7    3.9    0.0    5.7   6.36   2.70    0.00    0.00   0.00   0.00   0.00   0.00   0.43   0.63
   17 037   106   105    4.5    0.0   0.00   5.71    3.7    3.9    0.0    5.7   6.36   2.66    0.00    0.00   0.00   0.00   0.00   0.00   0.43   0.64
   17 038   107   106    4.6    0.0   0.00   5.73    3.8    3.9    0.0    5.7   6.36   2.56    0.00    0.00   0.00   0.00   0.00   0.00   0.42   0.69
   17 039   108   107    4.6    0.0   0.00   5.73    3.8    3.9    0.0    5.7   6.36   2.56    0.00    0.00   0.00   0.00   0.00   0.00   0.42   0.69
   17 040   109   108    4.6    0.0   0.00   5.73    3.8    3.9    0.0    5.7   6.36   2.56    0.00    0.00   0.00   0.00   0.00   0.00   0.42   0.69
   17 041   110   109    4.6    0.0   0.00   5.73    3.8    3.9    0.0    5.7   6.36   2.56    0.00    0.00   0.00   0.00   0.00   0.00   0.41   0.69
   17 042   111   110    4.6    0.0   0.00   5.73    3.8    3.9    0.0    5.7   6.36   2.56    0.00    0.00   0.00   0.00   0.00   0.00   0.41   0.69
   17 043   112   111    4.6    0.0   0.00   5.73    3.8    3.9    0.0    5.7   6.36   2.56    0.00    0.00   0.00   0.00   0.00   0.00   0.40   0.69
   17 044   113   112    4.7    0.0   0.00   5.69    3.8    3.9    0.0    5.7   6.36   2.49    0.00    0.00   0.00   0.00   0.00   0.00   0.40   0.71
   17 045   114   113    4.8    0.0   0.00   5.88    4.0    4.0    0.0    5.8   6.36   2.48    0.00    0.00   0.00   0.00   0.00   0.00   0.40   0.80
   17 046   115   114    4.8    0.0   0.00   5.87    4.0    4.0    0.0    5.7   6.36   2.46    0.00    0.00   0.00   0.00   0.00   0.00   0.39   0.81
   17 047   116   115    4.8    0.0   0.00   5.62    4.0    4.0    0.0    5.6   6.36   2.22    0.00    0.00   0.00   0.00   0.00   0.00   0.39   0.82
   17 048   117   116    4.9    0.0   0.00   5.63    4.1    4.0    0.0    5.6   6.36   2.16    0.00    0.00   0.00   0.00   0.00   0.00   0.38   0.87
   17 049   118   117    5.0    0.0   0.00   5.62    4.2    4.1    0.0    5.6   6.36   2.07    0.00    0.00   0.00   0.00   0.00   0.00   0.38   0.92
   17 050   119   118    5.0    0.0   0.00   5.59    4.2    4.1    0.0    5.6   6.36   2.07    0.00    0.00   0.00   0.00   0.00   0.00   0.40   0.94
   17 051   120   119    5.2    0.0   0.00   5.58    4.4    4.2    0.0    5.5   6.36   1.98    0.00    0.00   0.00   0.00   0.00   0.00   0.41   1.03
   17 052   121   120    5.2    0.0   0.00   5.48    4.4    4.2    0.0    5.5   6.36   1.94    0.00    0.00   0.00   0.00   0.00   0.00   0.41   1.04
   17 053   122   121    5.3    0.0   0.00   5.43    4.5    4.2    0.0    5.4   6.36   1.94    0.00    0.00   0.00   0.00   0.00   0.00   0.43   1.11
   17 054   123   122    5.6    0.0   0.00   5.37    4.8    4.3    0.0    5.4   6.36   1.93    0.00    0.00   0.00   0.00   0.00   0.00   0.47   1.25
   17 055   124   123    5.8    0.0   0.00   5.39    5.1    4.4    0.0    5.4   6.36   1.96    0.00    0.00   0.00   0.00   0.00   0.00   0.51   1.38
   17 056   125   124    6.2    0.0   0.00   5.48    5.6    4.6    0.0    5.4   6.36   2.03    0.00    0.00   0.00   0.00   0.00   0.00   0.57   1.58
   17 057   126   125    6.4    0.0   0.00   5.38    5.8    4.7    0.0    5.3   6.36   1.97    0.00    0.00   0.00   0.00   0.00   0.00   0.59   1.68
   17 058   127   126    6.8    0.0   0.00   5.34    6.3    4.9    0.0    5.3   6.36   1.97    0.00    0.00   0.00   0.00   0.00   0.00   0.66   1.90
   17 059   128   127    6.9    0.0   0.00   5.30    6.4    4.9    0.0    5.3   6.36   1.95    0.00    0.00   0.00   0.00   0.00   0.00   0.67   1.93
   17 060   129   128    7.2    0.0   0.00   5.34    6.8    5.1    0.0    5.3   6.36   1.98    0.00    0.00   0.00   0.00   0.00   0.00   0.72   2.11
   17 061   130   129    7.7    0.0   0.00   5.33    7.4    5.3    0.0    5.3   6.36   1.99    0.00    0.00   0.00   0.00   0.00   0.00   0.80   2.38
   17 062   131   130    8.1    0.0   0.00   5.30    7.8    5.5    0.0    5.3   6.36   1.99    0.00    0.00   0.00   0.00   0.00   0.00   0.86   2.57
   17 063   132   131    8.5    0.0   0.00   5.15    8.3    5.7    0.0    5.1   6.36   1.92    0.00    0.00   0.00   0.00   0.00   0.00   0.92   2.78
   17 064   133   132    9.2    0.0   0.00   5.22    9.0    6.0    0.0    5.2   6.36   1.97    0.00    0.00   0.00   0.00   0.00   0.00   1.02   3.11
   17 065   134   133    9.6    0.0   0.00   5.19    9.5    6.2    0.0    5.2   6.36   1.97    0.00    0.00   0.00   0.00   0.00   0.00   1.08   3.33
   17 066   135   134    9.9    0.0   0.00   5.18   10.0    6.4    0.0    5.2   6.36   2.05    0.00    0.00   0.00   0.00   0.00   0.00   1.22   3.48
   17 067   136   135   10.3    0.0   0.00   5.18   10.5    6.6    0.0    5.1   6.36   1.97    0.00    0.00   0.00   0.00   0.00   0.00   1.25   3.72
   17 068   137   136   10.4    0.0   0.00   5.04   10.5    6.6    0.0    5.0   6.36   1.92    0.00    0.00   0.00   0.00   0.00   0.00   1.25   3.74
   17 069   138   137   11.1    0.0   0.00   5.14   11.5    7.0    0.0    5.1   6.36   2.04    0.00    0.00   0.00   0.00   0.00   0.00   1.49   4.11
   17 070   139   138   11.4    0.0   0.00   5.08   12.0    7.1    0.0    5.1   6.36   2.02    0.00    0.00   0.00   0.00   0.00   0.00   1.63   4.27
   17 071   140   139   12.1    0.0   0.00   5.08   12.9    7.4    0.0    5.1   6.36   2.03    0.00    0.00   0.00   0.00   0.00   0.00   1.89   4.61
   17 072   141   140   12.9    0.0   0.00   5.06   14.1    7.8    0.0    5.0   6.36   2.02    0.00    0.00   0.00   0.00   0.00   0.00   2.19   5.02
   17 073   142   141   13.8    0.0   0.00   5.03   15.1    8.3    0.0    5.0   6.36   1.96    0.00    0.00   0.00   0.00   0.00   0.00   2.32   5.48
   17 074   143   142   14.7    0.0   0.00   4.98   16.1    8.7    0.0    5.0   6.36   1.93    0.00    0.00   0.00   0.00   0.00   0.00   2.44   5.93
   17 075   144   143   16.2    0.0   0.00   4.92   18.0    9.5    0.0    4.9   6.36   1.92    0.00    0.00   0.00   0.00   0.00   0.00   2.72   6.71
   17 076   145   144   17.9    0.0   0.00   4.84   20.0   10.3    0.0    4.8   6.36   1.90    0.00    0.00   0.00   0.00   0.00   0.00   2.99   7.56
   17 077   146   145   18.6    0.0   0.00   4.84   20.8   10.6    0.0    4.8   6.36   1.92    0.00    0.00   0.00   0.00   0.00   0.00   3.10   7.91
   17 078   147   146   19.5    0.0   0.00   4.77   21.9   11.1    0.0    4.8   6.36   1.90    0.00    0.00   0.00   0.00   0.00   0.00   3.25   8.40
   17 079   148   147   21.2    0.0   0.00   4.75   23.9   11.9    0.0    4.7   6.36   1.91    0.00    0.00   0.00   0.00   0.00   0.00   3.54   9.25
   17 080   149   148   22.8    0.0   0.00   4.71   25.8   12.7    0.0    4.7   6.36   1.91    0.00    0.00   0.00   0.00   0.00   0.00   3.80  10.06
   17 081   150   149   23.6    0.0   0.00   4.71   26.7   13.1    0.0    4.7   6.36   1.92    0.00    0.00   0.00   0.00   0.00   0.00   3.92  10.44
   17 082   151   150   25.4    0.0   0.00   4.68   28.9   14.0    0.0    4.7   6.36   1.91    0.00    0.00   0.00   0.00   0.00   0.00   4.22  11.35
   17 083   152   151   26.4    0.0   0.00   4.65   30.1   14.5    0.0    4.6   6.36   1.92    0.00    0.00   0.00   0.00   0.00   0.00   4.38  11.86
   17 084   153   152   27.5    0.0   0.00   4.55   31.9   15.1    0.0    4.5   6.36   1.87    0.00    0.00   0.00   0.00   0.00   0.00   4.96  12.46
   17 085   154   153   28.7    0.0   0.00   4.57   33.7   15.7    0.0    4.6   6.36   1.93    0.00    0.00   0.00   0.00   0.00   0.00   5.51  13.07
   17 086   155   154   29.9    0.0   0.00   4.47   35.4   16.2    0.0    4.5   6.36   1.86    0.00    0.00   0.00   0.00   0.00   0.00   6.00  13.66
   17 087   156   155   31.1    0.0   0.00   4.28   37.1   16.8    0.0    4.3   6.36   1.72    0.00    0.00   0.00   0.00   0.00   0.00   6.48  14.24
   17 088   157   156   32.3    0.0   0.00   4.04   38.9   17.4    0.0    4.1   6.36   1.60    0.00    0.00   0.00   0.05   0.10   0.10   6.92  14.86
   17 089   158   157   33.5    0.0   0.00   3.91   40.5   18.0    0.0    3.9   6.36   1.52    0.00    0.00   0.00   0.14   0.26   0.26   7.41  15.49
   17 090   159   158   34.8    0.0   0.00   3.72   42.1   18.6    0.0    3.8   6.36   1.41    0.00    0.00   0.00   0.18   0.32   0.32   7.92  16.13
   17 091   160   159   36.0    0.0   0.00   3.60   43.9   19.3    0.0    3.6   6.36   1.36    0.00    0.00   0.00   0.24   0.43   0.43   8.44  16.76
   17 092   161   160   37.2    0.0   0.00   3.49   45.7   19.9    0.0    3.5   6.36   1.32    0.00    0.00   0.00   0.28   0.49   0.49   8.94  17.36
   17 093   162   161   38.4    0.0   0.00   3.43   47.5   20.4    0.0    3.5   6.36   1.30    0.00    0.00   0.00   0.32   0.53   0.53   9.43  17.95
   17 094   163   162   39.6    0.0   0.00   3.29   49.1   21.0    0.1    3.4   0.66   1.32    0.00    0.00   0.01   0.34   0.56   0.56   9.79  18.51
   17 095   164   163   40.6    0.0   0.00   3.15   50.5   21.5    0.2    3.3   0.64   1.31    0.00    0.00   0.08   0.39   0.63   0.63  10.05  19.00
   17 096   165   164   41.6    0.0   0.00   3.10   51.8   21.9    0.3    3.2   0.76   1.32    0.00    0.00   0.17   0.45   0.70   0.70  10.24  19.45
   17 097   166   165   42.5    0.0   0.00   2.95   52.8   22.3    0.4    3.1   0.72   1.30    0.00    0.00   0.19   0.46   0.71   0.71  10.40  19.85
   17 098   167   166   43.4    0.0   0.00   2.81   53.7   22.7    0.5    3.0   0.69   1.27    0.00    0.00   0.28   0.52   0.77   0.77  10.51  20.23
   17 099   168   167   44.2    0.0   0.00   2.67   54.5   23.0    0.7    2.9   0.66   1.24    0.00    0.00   0.36   0.58   0.82   0.82  10.61  20.57
   17 100   169   168   45.0    0.0   0.00   2.58   55.2   23.3    0.8    2.8   0.66   1.22    0.00    0.00   0.44   0.63   0.86   0.86  10.69  20.88
   17 101   170   169   45.7    0.0   0.00   2.53   55.7   23.6    0.9    2.7   0.68   1.20    0.00    0.00   0.51   0.67   0.89   0.89  10.75  21.17
   17 102   171   170   46.3    0.0   0.00   2.47   56.2   23.8    1.1    2.7   0.69   1.19    0.00    0.00   0.53   0.69   0.90   0.90  10.80  21.44
   17 103   172   171   47.0    0.0   0.00   2.44   56.7   24.1    1.2    2.7   0.72   1.18    0.00    0.00   0.56   0.71   0.91   0.91  10.84  21.69
   17 104   173   172   47.6    0.0   0.00   2.41   57.0   24.3    1.3    2.6   0.74   1.18    0.00    0.00   0.57   0.71   0.92   0.92  10.88  21.93
   17 105   174   173   48.1    0.0   0.00   2.38   57.4   24.5    1.4    2.6   0.75   1.17    0.00    0.00   0.57   0.71   0.92   0.92  10.91  22.16
   17 106   175   174   48.7    0.0   0.00   2.37   57.7   24.8    1.6    2.6   0.78   1.17    0.00    0.00   0.58   0.72   0.92   0.92  10.94  22.37
   17 107   176   175   50.1    0.0   0.00   2.42   59.5   25.3    1.9    2.6   0.92   1.19    0.00    0.00   0.58   0.72   0.92   0.92  11.18  22.93
   17 108   177   176   50.8    0.0   0.00   2.41   60.3   25.5    2.1    2.6   0.96   1.20    0.00    0.00   0.54   0.69   0.91   0.91  11.24  23.19
   17 109   178   177   51.5    0.0   0.00   2.42   61.2   25.8    2.2    2.6   1.00   1.20    0.00    0.00   0.54   0.69   0.90   0.90  11.30  23.47
   17 110   179   178   52.2    0.0   0.00   2.41   62.0   26.0    2.4    2.6   1.02   1.20    0.00    0.00   0.53   0.68   0.90   0.90  11.33  23.71
   17 111   180   179   52.7    0.0   0.00   2.36   62.7   26.3    2.5    2.6   1.00   1.19    0.00    0.00   0.53   0.68   0.90   0.90  11.35  23.91
   17 112   181   180   53.2    0.0   0.00   2.35   63.3   26.4    2.7    2.6   1.00   1.18    0.00    0.00   0.55   0.70   0.91   0.91  11.35  24.10
   17 113   182   181   53.7    0.0   0.00   2.33   63.9   26.6    2.8    2.6   1.00   1.18    0.00    0.00   0.56   0.70   0.91   0.91  11.35  24.27
   17 114   183   182   54.1    0.0   0.00   2.27   64.4   26.7    2.9    2.5   0.95   1.15    0.00    0.00   0.56   0.71   0.91   0.91  11.34  24.42
   17 115   184   183   54.5    0.0   0.00   2.25   64.9   26.9    3.0    2.5   0.95   1.15    0.00    0.00   0.60   0.74   0.93   0.93  11.32  24.57
   17 116   185   184   54.9    0.0   0.00   2.25   65.3   27.0    3.1    2.5   0.97   1.15    0.00    0.00   0.61   0.74   0.93   0.93  11.30  24.70
   17 117   186   185   55.2    0.0   0.00   2.25   65.7   27.1    3.2    2.5   0.98   1.15    0.00    0.00   0.61   0.74   0.93   0.93  11.26  24.81
   17 118   187   186   55.4    0.0   0.00   2.25   66.1   27.2    3.3    2.5   0.99   1.15    0.00    0.00   0.60   0.74   0.93   0.93  11.21  24.91
   17 119   188   187   55.7    0.0   0.00   2.21   66.5   27.3    3.4    2.5   0.96   1.13    0.00    0.00   0.60   0.73   0.93   0.93  11.17  25.02
   17 120   189   188   56.0    0.0   0.00   2.16   66.8   27.4    3.5    2.4   0.91   1.11    0.00    0.00   0.62   0.74   0.93   0.93  11.12  25.11
   17 121   190   189   56.2    0.0   0.00   2.13   67.0   27.5    3.6    2.4   0.89   1.10    0.00    0.00   0.65   0.77   0.95   0.95  11.06  25.19
   17 122   191   190   56.4    0.0   0.00   2.10   67.3   27.5    3.6    2.4   0.87   1.08    0.00    0.00   0.66   0.77   0.95   0.95  10.99  25.25
   17 123   192   191   56.6    0.0   0.00   2.08   67.5   27.6    3.7    2.4   0.84   1.07    0.00    0.00   0.67   0.78   0.95   0.95  10.92  25.30
   17 124   193   192   56.7    0.0   0.00   2.05   67.7   27.6    3.7    2.3   0.82   1.05    0.00    0.00   0.68   0.79   0.96   0.96  10.85  25.35
   17 125   194   193   56.9    0.0   0.00   2.02   67.8   27.7    3.8    2.3   0.80   1.04    0.00    0.00   0.69   0.79   0.96   0.96  10.78  25.40
   17 126   195   194   57.0    0.0   0.00   1.98   68.0   27.7    3.8    2.3   0.77   1.02    0.00    0.00   0.69   0.80   0.96   0.96  10.72  25.44
   17 127   196   195   57.1    0.0   0.00   1.97   68.2   27.8    3.9    2.3   0.76   1.01    0.00    0.00   0.72   0.81   0.96   0.96  10.65  25.49
   17 128   197   196   57.3    0.0   0.00   1.96   68.4   27.8    3.9    2.3   0.76   1.01    0.00    0.00   0.71   0.81   0.96   0.96  10.58  25.53
   17 129   198   197   57.4    0.0   0.00   1.94   68.6   27.9    4.0    2.2   0.74   1.00    0.00    0.00   0.71   0.81   0.96   0.96  10.51  25.57
   17 130   199   198   57.6    0.0   0.00   1.91   68.8   27.9    4.1    2.2   0.71   0.98    0.00    0.00   0.72   0.81   0.96   0.96  10.45  25.62
   17 131   200   199   57.7    0.0   0.00   1.88   68.9   27.9    4.1    2.2   0.69   0.97    0.00    0.00   0.73   0.82   0.97   0.97  10.39  25.66
   17 132   201   200   57.9    0.0   0.00   1.85   69.1   28.0    4.2    2.2   0.67   0.95    0.00    0.00   0.73   0.82   0.97   0.97  10.33  25.70
   17 133   202   201   58.0    0.0   0.00   1.83   69.3   28.0    4.3    2.2   0.66   0.94    0.00    0.00   0.73   0.82   0.97   0.97  10.27  25.74
   17 134   203   202   58.1    0.0   0.00   1.81   69.5   28.0    4.3    2.2   0.64   0.93    0.00    0.00   0.73   0.82   0.97   0.97  10.21  25.77
   17 135   204   203   58.3    0.0   0.00   1.79   69.7   28.1    4.4    2.1   0.63   0.92    0.00    0.00   0.73   0.82   0.97   0.97  10.16  25.81
   17 136   205   204   58.5    0.0   0.00   1.76   69.9   28.1    4.5    2.1   0.61   0.90    0.00    0.00   0.73   0.82   0.97   0.97  10.12  25.85
   17 137   206   205   58.7    0.0   0.00   1.73   70.2   28.1    4.6    2.1   0.57   0.89    0.00    0.00   0.71   0.81   0.96   0.96  10.09  25.89
   17 138   207   206   58.9    0.0   0.00   1.71   70.5   28.2    4.8    2.1   0.55   0.89    0.00    0.00   0.68   0.79   0.96   0.96  10.07  25.93
   17 139   208   207   59.1    0.0   0.00   1.68   70.8   28.2    4.9    2.1   0.53   0.88    0.00    0.00   0.66   0.77   0.95   0.95  10.06  25.95
   17 140   209   208   59.3    0.0   0.00   1.66   71.1   28.2    5.1    2.1   0.51   0.87    0.00    0.00   0.64   0.76   0.94   0.94  10.05  25.98
   17 141   210   209   59.5    0.0   0.00   1.63   71.4   28.2    5.3    2.1   0.50   0.87    0.00    0.00   0.64   0.76   0.94   0.94  10.05  25.99
   17 142   211   210   59.7    0.0   0.00   1.60   71.7   28.2    5.5    2.1   0.48   0.86    0.00    0.00   0.62   0.74   0.93   0.93  10.05  26.01
   17 143   212   211   59.9    0.0   0.00   1.57   72.0   28.2    5.7    2.1   0.46   0.85    0.00    0.00   0.60   0.73   0.93   0.93  10.06  26.01
   17 144   213   212   62.0    0.0   0.00   1.60   75.1   28.2    7.7    2.1   0.60   0.92    0.00    0.00   0.59   0.73   0.93   0.93  11.01  26.01
   17 145   214   213   63.7    0.0   0.00   1.60   77.7   28.2    9.4    2.1   0.68   0.97    0.00    0.00   0.46   0.64   0.87   0.87  11.75  26.01
   17 146   215   214   64.8    0.0   0.00   1.57   79.4   28.2   10.6    2.1   0.68   0.99    0.00    0.00   0.38   0.58   0.83   0.83  12.16  26.01
   17 147   216   215   65.4    0.0   0.00   1.53   80.2   28.2   11.1    2.1   0.66   0.98    0.00    0.00   0.35   0.57   0.81   0.81  12.31  26.01
   17 148   217   216   65.7    0.0   0.00   1.48   80.7   28.2   11.5    2.1   0.62   0.96    0.00    0.00   0.35   0.56   0.81   0.81  12.34  26.01
   17 149   218   217   66.0    0.0   0.00   1.44   81.1   28.2   11.8    2.1   0.59   0.94    0.00    0.00   0.34   0.56   0.80   0.80  12.34  26.01
   17 150   219   218   70.1    0.0   0.00   1.49   87.1   28.2   15.9    2.1   0.75   1.06    0.00    0.00   0.29   0.53   0.78   0.78  14.07  26.01
   17 151   220   219   74.3    0.0   0.00   1.52   93.1   28.2   20.0    2.1   0.87   1.16    0.00    0.00   0.00   0.33   0.56   0.56  15.77  26.01
   17 152   221   220   76.6    0.0   0.00   1.50   96.4   28.2   22.3    2.1   0.89   1.21    0.00    0.00   0.00   0.16   0.30   0.30  16.60  26.01
   17 153   222   221   77.7    0.0   0.00   1.47   98.0   28.2   23.5    2.1   0.86   1.22    0.00    0.00   0.00   0.01   0.03   0.03  16.90  26.01
   17 154   223   222   81.9    0.0   0.00   1.49  104.0   28.2   27.6    2.1   0.95   1.33    0.00    0.00   0.00   0.00   0.00   0.00  18.53  26.01
   17 155   224   223   84.1    0.0   0.00   1.49  107.3   28.2   29.9    2.1   0.98   1.39    0.00    0.00   0.00   0.00   0.00   0.00  19.35  26.01
   17 156   225   224   87.5    0.0   0.00   1.51  112.3   28.2   33.2    2.1   1.04   1.49    0.00    0.00   0.00   0.00   0.00   0.00  20.81  26.01
   17 157   226   225   89.4    0.0   0.00   1.52  115.3   28.2   35.2    2.1   1.07   1.56    0.00    0.00   0.00   0.00   0.00   0.00  21.68  26.01
   17 158   227   226   90.9    0.0   0.00   1.50  117.7   28.2   36.7    2.1   1.05   1.59    0.00    0.00   0.00   0.00   0.00   0.00  22.27  26.01
   17 159   228   227   91.4    0.0   0.00   1.45  118.4   28.2   37.2    2.1   1.00   1.58    0.00    0.00   0.00   0.00   0.00   0.00  22.32  26.01
   17 160   229   228   91.8    0.0   0.00   1.42  119.1   28.2   37.6    2.1   0.96   1.58    0.00    0.00   0.00   0.00   0.00   0.00  22.39  26.01
   17 161   230   229   92.1    0.0   0.00   1.37  119.8   28.2   37.9    2.1   0.92   1.58    0.00    0.00   0.00   0.00   0.00   0.00  22.50  26.01
   17 162   231   230   92.3    0.0   0.00   1.33  120.4   28.2   38.1    2.1   0.88   1.57    0.00    0.00   0.00   0.00   0.00   0.00  22.64  26.01
   17 163   232   231   92.3    0.0   0.00   1.30  120.9   28.2   38.1    2.1   0.84   1.59    0.00    0.00   0.00   0.00   0.00   0.00  22.94  26.01
   17 164   233   232   92.3    0.0   0.00   1.26  122.4   28.2   38.1    2.1   0.80   1.67    0.00    0.00   0.00   0.00   0.00   0.00  24.24  26.01
   17 165   234   233   92.8   15.9   2.40   1.12  123.1   26.3   30.1    2.0   0.71   1.65    0.00    0.00   0.00   0.00   0.00   0.00  24.20  20.52
   17 166   235   234   94.3   19.5   2.22   1.10  126.0   24.3   31.3    1.8   0.74   1.72    0.00    0.00   0.00   0.00   0.00   0.00  25.41  19.13
   17 167   236   235   94.3   22.6   2.01   1.06  126.4   22.7   31.0    1.7   0.75   1.72    0.00    0.00   0.00   0.00   0.00   0.00  25.51  18.00
   17 168   237   236   94.3   25.4   1.88   1.03  126.7   21.2   30.6    1.6   0.75   1.72    0.00    0.00   0.00   0.00   0.00   0.00  25.60  17.01
   17 169   238   237   94.3   28.3   1.81   0.99  127.1   19.8   30.1    1.5   0.74   1.72    0.00    0.00   0.00   0.00   0.00   0.00  25.73  16.02
   17 170   239   238   94.3   31.9   1.78   0.95  127.3   18.1   29.4    1.4   0.73   1.72    0.00    0.00   0.00   0.00   0.00   0.00  25.86  14.81
[...]
   17 087   156   155    9.4    0.0   0.00   2.69    9.5    6.1    0.0    3.0   6.36   0.79    0.00    0.00   0.61   0.74   0.93   0.93   1.03   3.29
   17 088   157   156    9.7    0.0   0.00   2.63    9.8    6.3    0.0    2.9   6.36   0.79    0.00    0.00   0.63   0.75   0.94   0.94   1.09   3.44
   17 089   158   157   10.0    0.0   0.00   2.60   10.2    6.4    0.0    2.9   6.36   0.78    0.00    0.00   0.65   0.77   0.95   0.95   1.15   3.60
   17 090   159   158   10.4    0.0   0.00   2.55   10.6    6.6    0.0    2.8   6.36   0.78    0.00    0.00   0.66   0.77   0.95   0.95   1.22   3.77
   17 091   160   159   10.7    0.0   0.00   2.52   11.0    6.7    0.0    2.8   6.36   0.79    0.00    0.00   0.68   0.79   0.95   0.95   1.28   3.95
   17 092   161   160   11.1    0.0   0.00   2.50   11.5    6.9    0.0    2.8   6.36   0.80    0.00    0.00   0.68   0.79   0.96   0.96   1.35   4.13
   17 093   162   161   11.4    0.0   0.00   2.50   11.9    7.1    0.0    2.8   6.36   0.82    0.00    0.00   0.69   0.79   0.96   0.96   1.42   4.32
   17 094   163   162   11.8    0.0   0.00   2.51   12.4    7.2    0.0    2.8   1.53   0.85    0.00    0.00   0.67   0.78   0.95   0.95   1.49   4.50
   17 095   164   163   12.1    0.0   0.00   2.51   12.8    7.4    0.1    2.8   1.05   0.86    0.00    0.00   0.66   0.77   0.95   0.95   1.55   4.68
   17 096   165   164   12.5    0.0   0.00   2.53   13.2    7.6    0.1    2.8   1.04   0.89    0.00    0.00   0.65   0.77   0.95   0.95   1.61   4.86
   17 097   166   165   12.9    0.0   0.00   2.49   13.7    7.7    0.1    2.7   0.88   0.89    0.00    0.00   0.62   0.75   0.94   0.94   1.68   5.03
   17 098   167   166   13.2    0.0   0.00   2.44   14.1    7.9    0.1    2.7   0.80   0.89    0.00    0.00   0.63   0.76   0.94   0.94   1.74   5.20
   17 099   168   167   13.6    0.0   0.00   2.39   14.5    8.0    0.2    2.7   0.76   0.88    0.00    0.00   0.65   0.77   0.95   0.95   1.80   5.38
   17 100   169   168   14.0    0.0   0.00   2.35   14.9    8.2    0.2    2.6   0.76   0.88    0.00    0.00   0.67   0.78   0.95   0.95   1.87   5.55
   17 101   170   169   14.4    0.0   0.00   2.34   15.3    8.4    0.3    2.6   0.81   0.89    0.00    0.00   0.69   0.79   0.96   0.96   1.94   5.73
   17 102   171   170   14.7    0.0   0.00   2.32   15.7    8.5    0.3    2.6   0.84   0.90    0.00    0.00   0.68   0.79   0.96   0.96   2.00   5.90
   17 103   172   171   15.1    0.0   0.00   2.32   16.1    8.7    0.4    2.6   0.89   0.91    0.00    0.00   0.69   0.79   0.96   0.96   2.07   6.08
   17 104   173   172   15.5    0.0   0.00   2.32   16.4    8.8    0.4    2.6   0.94   0.92    0.00    0.00   0.67   0.78   0.95   0.95   2.14   6.25
   17 105   174   173   15.9    0.0   0.00   2.31   16.8    9.0    0.5    2.6   0.96   0.93    0.00    0.00   0.65   0.77   0.95   0.95   2.21   6.43
   17 106   175   174   16.3    0.0   0.00   2.32   17.1    9.2    0.6    2.6   1.02   0.95    0.00    0.00   0.65   0.77   0.95   0.95   2.28   6.60
   17 107   176   175   16.7    0.0   0.00   2.34   17.6    9.3    0.6    2.6   1.09   0.97    0.00    0.00   0.63   0.75   0.94   0.94   2.35   6.78
   17 108   177   176   17.1    0.0   0.00   2.36   18.1    9.5    0.7    2.6   1.15   0.99    0.00    0.00   0.60   0.74   0.93   0.93   2.42   6.94
   17 109   178   177   17.5    0.0   0.00   2.37   18.6    9.6    0.8    2.6   1.20   1.01    0.00    0.00   0.59   0.73   0.92   0.92   2.49   7.11
   17 110   179   178   17.9    0.0   0.00   2.37   19.1    9.7    0.9    2.6   1.22   1.02    0.00    0.00   0.57   0.71   0.92   0.92   2.55   7.27
   17 111   180   179   18.3    0.0   0.00   2.32   19.5    9.9    1.0    2.6   1.19   1.01    0.00    0.00   0.56   0.71   0.91   0.91   2.60   7.42
   17 112   181   180   18.7    0.0   0.00   2.32   20.0   10.0    1.1    2.6   1.21   1.01    0.00    0.00   0.59   0.73   0.92   0.92   2.67   7.57
   17 113   182   181   19.0    0.0   0.00   2.31   20.5   10.2    1.1    2.6   1.22   1.02    0.00    0.00   0.58   0.72   0.92   0.92   2.72   7.73
   17 114   183   182   19.4    0.0   0.00   2.24   20.9   10.3    1.2    2.5   1.15   0.99    0.00    0.00   0.58   0.72   0.92   0.92   2.78   7.87
   17 115   184   183   19.8    0.0   0.00   2.24   21.4   10.4    1.3    2.5   1.17   1.00    0.00    0.00   0.63   0.75   0.94   0.94   2.84   8.02
   17 116   185   184   20.2    0.0   0.00   2.26   21.8   10.6    1.4    2.5   1.23   1.02    0.00    0.00   0.63   0.75   0.94   0.94   2.89   8.16
   17 117   186   185   20.5    0.0   0.00   2.28   22.2   10.7    1.5    2.6   1.27   1.03    0.00    0.00   0.60   0.73   0.93   0.93   2.94   8.29
   17 118   187   186   20.8    0.0   0.00   2.28   22.6   10.8    1.6    2.6   1.30   1.04    0.00    0.00   0.58   0.72   0.92   0.92   2.98   8.41
   17 119   188   187   21.1    0.0   0.00   2.23   23.0   10.9    1.7    2.5   1.25   1.02    0.00    0.00   0.56   0.71   0.91   0.91   3.02   8.52
   17 120   189   188   21.4    0.0   0.00   2.16   23.4   11.0    1.8    2.5   1.17   0.99    0.00    0.00   0.59   0.73   0.93   0.93   3.06   8.63
   17 121   190   189   21.7    0.0   0.00   2.14   23.7   11.1    1.9    2.4   1.16   0.98    0.00    0.00   0.65   0.77   0.95   0.95   3.09   8.73
   17 122   191   190   21.9    0.0   0.00   2.11   24.0   11.1    2.0    2.4   1.13   0.96    0.00    0.00   0.65   0.77   0.95   0.95   3.11   8.81
   17 123   192   191   22.2    0.0   0.00   2.08   24.3   11.2    2.0    2.4   1.11   0.95    0.00    0.00   0.67   0.78   0.95   0.95   3.14   8.90
   17 124   193   192   22.4    0.0   0.00   2.05   24.6   11.3    2.1    2.4   1.09   0.94    0.00    0.00   0.68   0.79   0.96   0.96   3.17   8.98
   17 125   194   193   22.6    0.0   0.00   2.02   24.9   11.4    2.2    2.3   1.07   0.93    0.00    0.00   0.69   0.79   0.96   0.96   3.19   9.06
   17 126   195   194   22.9    0.0   0.00   1.98   25.2   11.4    2.3    2.3   1.03   0.91    0.00    0.00   0.69   0.80   0.96   0.96   3.22   9.14
   17 127   196   195   23.1    0.0   0.00   1.97   25.5   11.5    2.4    2.3   1.03   0.91    0.00    0.00   0.72   0.82   0.97   0.97   3.25   9.21
   17 128   197   196   23.3    0.0   0.00   1.97   25.7   11.6    2.5    2.3   1.04   0.91    0.00    0.00   0.71   0.81   0.96   0.96   3.28   9.29
   17 129   198   197   23.5    0.0   0.00   1.95   26.0   11.6    2.6    2.3   1.03   0.91    0.00    0.00   0.70   0.80   0.96   0.96   3.30   9.35
   17 130   199   198   23.7    0.0   0.00   1.91   26.3   11.7    2.6    2.3   0.99   0.89    0.00    0.00   0.71   0.81   0.96   0.96   3.33   9.42
   17 131   200   199   24.0    0.0   0.00   1.87   26.6   11.7    2.7    2.2   0.97   0.87    0.00    0.00   0.74   0.82   0.97   0.97   3.35   9.49
   17 132   201   200   24.2    0.0   0.00   1.85   26.9   11.8    2.8    2.2   0.95   0.86    0.00    0.00   0.74   0.83   0.97   0.97   3.38   9.55
   17 133   202   201   24.4    0.0   0.00   1.82   27.1   11.8    2.9    2.2   0.93   0.85    0.00    0.00   0.74   0.83   0.97   0.97   3.42   9.61
   17 134   203   202   24.6    0.0   0.00   1.80   27.4   11.9    3.0    2.2   0.92   0.85    0.00    0.00   0.74   0.83   0.97   0.97   3.45   9.67
   17 135   204   203   24.8    0.0   0.00   1.78   27.7   11.9    3.2    2.2   0.91   0.84    0.00    0.00   0.74   0.83   0.97   0.97   3.48   9.73
   17 136   205   204   25.0    0.0   0.00   1.75   28.0   12.0    3.3    2.1   0.89   0.83    0.00    0.00   0.74   0.83   0.97   0.97   3.52   9.79
   17 137   206   205   25.3    0.0   0.00   1.72   28.3   12.0    3.4    2.1   0.84   0.83    0.00    0.00   0.72   0.82   0.97   0.97   3.57   9.83
   17 138   207   206   25.5    0.0   0.00   1.70   28.7   12.0    3.6    2.2   0.81   0.83    0.00    0.00   0.70   0.80   0.96   0.96   3.63   9.88
   17 139   208   207   25.8    0.0   0.00   1.68   29.0   12.1    3.8    2.2   0.80   0.83    0.00    0.00   0.67   0.78   0.95   0.95   3.69   9.92
   17 140   209   208   26.0    0.0   0.00   1.65   29.4   12.1    4.0    2.2   0.78   0.83    0.00    0.00   0.66   0.77   0.95   0.95   3.75   9.95
   17 141   210   209   26.3    0.0   0.00   1.62   29.7   12.1    4.2    2.2   0.76   0.83    0.00    0.00   0.65   0.77   0.95   0.95   3.82   9.97
   17 142   211   210   26.6    0.0   0.00   1.59   30.1   12.1    4.5    2.2   0.74   0.83    0.00    0.00   0.63   0.76   0.94   0.94   3.89   9.99
   17 143   212   211   26.8    0.0   0.00   1.56   30.5   12.1    4.7    2.2   0.72   0.83    0.00    0.00   0.62   0.74   0.93   0.93   3.97  10.01
   17 144   213   212   27.1    0.0   0.00   1.54   30.8   12.1    5.0    2.2   0.72   0.84    0.00    0.00   0.61   0.74   0.93   0.93   4.04  10.01
   17 145   214   213   27.3    0.0   0.00   1.52   31.2   12.1    5.2    2.2   0.71   0.84    0.00    0.00   0.59   0.73   0.93   0.93   4.12  10.01
   17 146   215   214   27.6    0.0   0.00   1.48   31.6   12.1    5.5    2.2   0.69   0.83    0.00    0.00   0.58   0.72   0.92   0.92   4.20  10.01
   17 147   216   215   27.9    0.0   0.00   1.45   32.0   12.1    5.8    2.2   0.67   0.83    0.00    0.00   0.57   0.71   0.92   0.92   4.28  10.01
   17 148   217   216   28.2    0.0   0.00   1.42   32.4   12.1    6.1    2.2   0.66   0.83    0.00    0.00   0.54   0.70   0.91   0.91   4.37  10.01
   17 149   218   217   28.5    0.0   0.00   1.40   32.8   12.1    6.4    2.2   0.65   0.83    0.00    0.00   0.50   0.67   0.89   0.89   4.46  10.01
   17 150   219   218   28.8    0.0   0.00   1.37   33.3   12.1    6.7    2.2   0.64   0.83    0.00    0.00   0.43   0.62   0.86   0.86   4.57  10.01
   17 151   220   219   29.2    0.0   0.00   1.34   33.8   12.1    7.1    2.2   0.63   0.83    0.00    0.00   0.37   0.58   0.82   0.82   4.68  10.01
   17 152   221   220   29.5    0.0   0.00   1.31   34.3   12.1    7.4    2.2   0.62   0.84    0.00    0.00   0.30   0.53   0.78   0.78   4.79  10.01
   17 153   222   221   29.9    0.0   0.00   1.28   34.8   12.1    7.8    2.2   0.61   0.84    0.00    0.00   0.20   0.46   0.71   0.71   4.92  10.01
   17 154   223   222   30.3    0.0   0.00   1.23   35.5   12.1    8.2    2.2   0.59   0.85    0.00    0.00   0.03   0.35   0.58   0.58   5.06  10.01
   17 155   224   223   30.8    0.0   0.00   1.21   36.1   12.1    8.6    2.2   0.59   0.87    0.00    0.00   0.00   0.30   0.51   0.51   5.21  10.01
   17 156   225   224   31.2    0.0   0.00   1.19   36.7   12.1    9.1    2.2   0.58   0.89    0.00    0.00   0.00   0.16   0.30   0.30   5.36  10.01
   17 157   226   225   31.6    0.0   0.00   1.18   37.4   12.1    9.5    2.2   0.59   0.91    0.00    0.00   0.00   0.05   0.10   0.10   5.53  10.01
   17 158   227   226   32.1    0.0   0.00   1.16   38.0   12.1   10.0    2.2   0.58   0.93    0.00    0.00   0.00   0.00   0.00   0.00   5.70  10.01
   17 159   228   227   32.5    0.0   0.00   1.13   38.7   12.1   10.4    2.2   0.57   0.95    0.00    0.00   0.00   0.00   0.00   0.00   5.86  10.01
   17 160   229   228   32.9    0.0   0.00   1.10   39.4   12.1   10.8    2.2   0.56   0.97    0.00    0.00   0.00   0.00   0.00   0.00   6.03  10.01
   17 161   230   229   33.4    0.0   0.00   1.07   40.1   12.1   11.3    2.2   0.55   0.98    0.00    0.00   0.00   0.00   0.00   0.00   6.21  10.01
   17 162   231   230   33.8    0.0   0.00   1.04   40.7   12.1   11.7    2.2   0.54   1.00    0.00    0.00   0.00   0.00   0.00   0.00   6.37  10.01
   17 163   232   231   34.1    0.0   0.00   1.02   41.3   12.1   12.0    2.2   0.53   1.02    0.00    0.00   0.00   0.00   0.00   0.00   6.54  10.01
   17 164   233   232   34.5    0.0   0.00   1.00   41.8   12.1   12.4    2.2   0.52   1.03    0.00    0.00   0.00   0.00   0.00   0.00   6.71  10.01
   17 165   234   233   34.7    8.0   2.40   0.83   42.4   10.5   12.6    1.9   0.59   1.06    0.00    0.00   0.00   0.00   0.00   0.00   6.94   3.58
   17 166   235   234   35.0    9.8   2.22   0.79   43.0    8.8   12.9    1.6   0.60   1.09    0.00    0.00   0.00   0.00   0.00   0.00   7.21   3.54
   17 167   236   235   35.2   11.4   2.01   0.75   43.6    7.2   13.1    1.3   0.62   1.12    0.00    0.00   0.00   0.00   0.00   0.00   7.50   3.49
   17 168   237   236   35.4   12.7   1.89   0.72   44.2    6.0   13.2    1.1   0.63   1.15    0.00    0.00   0.00   0.00   0.00   0.00   7.82   3.43
   17 169   238   237   35.6   13.7   1.82   0.69   44.7    5.1   13.4    0.9   0.63   1.19    0.00    0.00   0.00   0.00   0.00   0.00   8.16   3.37
   17 170   239   238   35.7   14.3   1.78   0.67   45.3    4.6   13.5    0.8   0.63   1.23    0.00    0.00   0.00   0.00   0.00   0.00   8.51   3.31
   17 171   240   239   35.8   14.9   1.75   0.65   45.9    4.2   13.5    0.7   0.62   1.28    0.00    0.00   0.00   0.00   0.00   0.00   8.86   3.24
   17 172   241   240   35.9   15.4   1.73   0.63   46.3    3.9   13.5    0.7   0.61   1.33    0.00    0.00   0.00   0.00   0.00   0.00   9.23   3.17
   17 173   242   241   36.1   16.0   1.70   0.62   46.9    3.7   13.4    0.7   0.61   1.37    0.00    0.00   0.00   0.00   0.00   0.00   9.55   3.10
   17 174   243   242   36.4   16.7   1.68   0.60   47.5    3.5   13.2    0.6   0.60   1.39    0.00    0.00   0.00   0.00   0.00   0.00   9.79   3.03
   17 175   244   243   36.7   17.4   1.65   0.59   48.1    3.4   12.9    0.6   0.58   1.41    0.00    0.00   0.00   0.00   0.00   0.00   9.97   2.96
   17 176   245   244   37.0   18.2   1.63   0.58   48.7    3.3   12.7    0.6   0.58   1.43    0.00    0.00   0.00   0.00   0.00   0.00  10.12   2.89
   17 177   246   245   37.4   19.0   1.61   0.56   49.4    3.2   12.4    0.6   0.56   1.46    0.00    0.00   0.00   0.00   0.00   0.00  10.33   2.82
   17 178   247   246   37.8   19.9   1.58   0.55   50.0    3.1   12.1    0.6   0.55   1.47    0.00    0.00   0.00   0.00   0.00   0.00  10.43   2.76
   17 179   248   247   38.3   20.9   1.56   0.54   50.7    3.0   11.8    0.5   0.55   1.49    0.00    0.00   0.00   0.00   0.00   0.00  10.59   2.69
   17 180   249   248   38.9   21.9   1.54   0.53   51.5    2.9   11.4    0.5   0.54   1.51    0.00    0.00   0.00   0.00   0.00   0.00  10.74   2.63
   17 181   250   249   39.4   23.0   1.52   0.52   52.4    2.9   11.0    0.5   0.53   1.54    0.00    0.00   0.00   0.00   0.00   0.00  10.93   2.56
   17 182   251   250   40.1   24.2   1.51   0.51   53.3    2.8   10.6    0.5   0.52   1.55    0.00    0.00   0.00   0.00   0.00   0.00  11.00   2.51
   17 183   252   251   40.8   25.4   1.49   0.51   54.0    2.7   10.2    0.5   0.52   1.55    0.00    0.00   0.00   0.00   0.00   0.00  10.98   2.45
   17 184   253   252   41.5   26.6   1.48   0.50   54.7    2.7    9.8    0.5   0.51   1.54    0.00    0.00   0.00   0.00   0.00   0.00  10.91   2.39
   17 185   254   253   42.1   27.8   1.46   0.49   55.4    2.6    9.3    0.5   0.50   1.53    0.00    0.00   0.00   0.00   0.00   0.00  10.82   2.34
   17 186   255   254   42.8   29.1   1.45   0.48   56.1    2.5    8.9    0.5   0.49   1.52    0.00    0.00   0.00   0.00   0.00   0.00  10.71   2.28
   17 187   256   255   43.4   30.3   1.44   0.47   56.7    2.5    8.4    0.4   0.48   1.51    0.00    0.00   0.00   0.00   0.00   0.00  10.61   2.21
   17 188   257   256   44.0   31.5   1.43   0.45   57.3    2.4    7.9    0.4   0.47   1.51    0.00    0.00   0.00   0.00   0.00   0.00  10.51   2.15
   17 189   258   257   44.6   32.7   1.42   0.44   57.9    2.3    7.5    0.4   0.46   1.50    0.00    0.00   0.00   0.00   0.00   0.00  10.41   2.08
   17 190   259   258   45.1   33.9   1.42   0.43   58.5    2.2    7.0    0.4   0.45   1.50    0.00    0.00   0.00   0.00   0.00   0.00  10.32   2.01
   17 191   260   259   45.7   35.1   1.41   0.42   59.1    2.2    6.5    0.4   0.44   1.51    0.00    0.00   0.00   0.00   0.00   0.00  10.25   1.95
   17 192   261   260   46.3   36.3   1.40   0.40   59.8    2.1    6.0    0.4   0.43   1.52    0.00    0.00   0.00   0.00   0.00   0.00  10.25   1.89
   17 193   262   261   46.9   37.5   1.40   0.39   60.5    2.0    5.6    0.4   0.41   1.53    0.00    0.00   0.00   0.00   0.00   0.00  10.26   1.84
   17 194   263   262   47.6   38.6   1.42   0.37   61.4    2.0    5.2    0.4   0.38   1.56    0.00    0.00   0.00   0.00   0.00   0.00  10.31   1.79
   17 195   264   263   48.2   39.6   1.44   0.36   62.0    2.0    4.9    0.3   0.36   1.57    0.00    0.00   0.00   0.00   0.00   0.00  10.32   1.75
   17 196   265   264   48.8   40.5   1.46   0.34   62.8    1.9    4.7    0.3   0.35   1.60    0.00    0.00   0.00   0.00   0.00   0.00  10.37   1.72
   17 197   266   265   49.6   41.5   1.49   0.34   63.6    1.9    4.5    0.3   0.34   1.60    0.00    0.00   0.00   0.00   0.00   0.00  10.26   1.68
   17 198   267   266   50.1   42.2   1.50   0.33   64.3    1.8    4.4    0.3   0.33   1.62    0.00    0.00   0.00   0.00   0.00   0.00  10.31   1.65
   17 199   268   267   50.5   42.8   1.52   0.32   64.9    1.8    4.3    0.3   0.32   1.65    0.00    0.00   0.00   0.00   0.00   0.00  10.41   1.61
   17 200   269   268   50.8   43.1   1.52   0.32   65.4    1.8    4.3    0.3   0.32   1.68    0.00    0.00   0.00   0.00   0.00   0.00  10.49   1.61
   17 201   270   269   50.8   43.2   1.53   0.32   65.4    1.8    4.3    0.3   0.32   1.68    0.00    0.00   0.00   0.00   0.00   0.00  10.38   1.59
   17 202   271   270   50.8   43.2   1.53   0.32   65.4    1.8    4.3    0.3   0.32   1.68    0.00    0.00   0.00   0.00   0.00   0.00  10.28   1.59
   17 203   272   271   50.8   43.2   1.53   0.32   65.4    1.8    4.3    0.3   0.32   1.68    0.00    0.00   0.00   0.00   0.00   0.00  10.28   1.59
   17 204   273   272   50.8   43.2   1.53   0.32   65.4    1.8    4.3    0.3   0.32   1.68    0.00    0.00   0.00   0.00   0.00   0.00  10.28   1.59
   17 205   274   273   50.8   43.2   1.53   0.32   65.4    1.8    4.3    0.3   0.32   1.68    0.00    0.00   0.00   0.00   0.00   0.00  10.28   1.59
   17 206   275   274   50.8   43.2   1.53   0.32   65.4    1.8    4.3    0.3   0.32   1.68    0.00    0.00   0.00   0.00   0.00   0.00  10.28   1.59
   17 207   276   275   50.8   43.2   1.53   0.32   65.4    1.8    4.3    0.3   0.32   1.68    0.00    0.00   0.00   0.00   0.00   0.00  10.28   1.59
   17 208   277   276   50.8   43.2   1.53   0.32   65.4    1.8    4.3    0.3   0.32   1.68    0.00    0.00   0.00   0.00   0.00   0.00  10.28   1.59
   17 209   278   277   50.8   43.2   1.53   0.32   65.4    1.8    4.3    0.3   0.32   1.68    0.00    0.00   0.00   0.00   0.00   0.00  10.28   1.59
   17 210   279   278   50.8   43.2   1.53   0.32   65.4    1.8    4.3    0.3   0.32   1.68    0.00    0.00   0.00   0.00   0.00   0.00  10.28   1.59
   17 211   280   279   50.8   43.2   1.53   0.32   65.4    1.8    4.3    0.3   0.32   1.68    0.00    0.00   0.00   0.00   0.00   0.00  10.28   1.59
   17 212   281   280   50.8   43.2   1.53   0.32   65.4    1.8    4.3    0.3   0.32   1.68    0.00    0.00   0.00   0.00   0.00   0.00  10.28   1.59
   17 213   282   281   50.8   43.2   1.53   0.32   65.4    1.8    4.3    0.3   0.32   1.68    0.00    0.00   0.00   0.00   0.00   0.00  10.28   1.59
   17 214   283   282   50.8   43.2   1.53   0.32   65.4    1.8    4.3    0.3   0.32   1.68    0.00    0.00   0.00   0.00   0.00   0.00  10.28   1.59
   17 215   284   283   50.8   43.2   1.53   0.32   65.4    1.8    4.3    0.3   0.32   1.68    0.00    0.00   0.00   0.00   0.00   0.00  10.28   1.59
   17 216   285   284   50.8   43.2   1.53   0.32   65.4    1.8    4.3    0.3   0.32   1.68    0.00    0.00   0.00   0.00   0.00   0.00  10.28   1.59
   17 217   286   285   50.8   43.2   1.53   0.32   65.4    1.8    4.3    0.3   0.32   1.68    0.00    0.00   0.00   0.00   0.00   0.00  10.28   1.59
   17 218   287   286   50.8   43.2   1.53   0.32   65.4    1.8    4.3    0.3   0.32   1.68    0.00    0.00   0.00   0.00   0.00   0.00  10.28   1.59
   17 219   288   287   50.8   43.2   1.53   0.32   65.4    1.8    4.3    0.3   0.32   1.68    0.00    0.00   0.00   0.00   0.00   0.00  10.28   1.59
