*GROWTH ASPECTS OUTPUT FILE

*DSSAT Cropping System Model Ver. 4.8.5.000 -release  NOV 27, 2025 15:48:48

*RUN   1        : 1                         WHAPS048 TUDU1701    1
 MODEL          : WHAPS048 - Wheat
 EXPERIMENT     : TUDU1701 WH
 DATA PATH      :
 TREATMENT  1   : 1                         WHAPS048
  
!                                                                                                                                                                                                                                             Root Dens. (cm/cm3) by soil depth (cm):
!                                                                                                                                                                                                                                             0-5    5-15   15-20   20-30   30-40   40-50   50-60   60-70   70-90  90-210
@YEAR DOY   DAS   DAP    DCCD  GSTD   LAID   LWAD   SWAD   GWAD   RWAD   VWAD   CWAD   G#AD   G#AD2  GWGD   HIAD   SHAD   WSPD   WSGD   SLFT   NSTD   EWSD  PST1A  PST2A   KSTD   LN%D   TPSM   HIPD   PWDD   PWTD     SLAD   CHTD   CWID   RDPD    RL1D    RL2D    RL3D    RL4D    RL5D    RL6D    RL7D    RL8D    RL9D   RL10D   CDAD   LDAD   SDAD   SNW0C   SNW1C    DTTD   SUMDTT
   16 298     1     0   0.000     8  0.000      0      0      0      0      0      0      0      0    0.0  0.000      0   0.00   0.00   0.00   0.00   0.00   0.00   0.00   1.00   0.00    0.0   0.00      0      0      0.0   0.00   0.00 0.0250   0.000   0.000   0.000   0.000   0.000   0.000   0.000   0.000   0.000   0.000      0      0      0       0       0  12.000    0.000
   16 299     2     1   0.000     8  0.000      0      0      0      0      0      0      0      0    0.0  0.000      0   0.00   0.00   0.00   0.00   0.00   0.00   0.00   1.00   0.00    0.0   0.00      0      0      0.0   0.00   0.00 0.0250   0.000   0.000   0.000   0.000   0.000   0.000   0.000   0.000   0.000   0.000      0      0      0       0       0  10.500   10.500
   16 300     3     2   1.145     9  0.000      0      0      0      0      0      0      0      0    0.0  0.000      0   0.00   0.00   0.00   0.00   0.00   0.00   0.00   1.00   0.00    0.0   0.00      0      0      0.0   0.00   0.00 0.0250   0.000   0.000   0.000   0.000   0.000   0.000   0.000   0.000   0.000   0.000      0      0      0       0       0   7.500    7.500
   16 301     4     3   2.061     9  0.000      0      0      0      0      0      0      0      0    0.0  0.000      0   0.00   0.00   0.00   0.00   0.00   0.00   0.00   1.00   0.00    0.0   0.00      0      0      0.0   0.00   0.00 0.0325   0.000   0.000   0.000   0.000   0.000   0.000   0.000   0.000   0.000   0.000      0      0      0       0       0   6.000   13.500
   16 302     5     4   2.901     9  0.000      0      0      0      0      0      0      0      0    0.0  0.000      0   0.00   0.00   0.00   0.00   0.00   0.00   0.00   1.00   0.00    0.0   0.00      0      0      0.0   0.00   0.00 0.0385   0.000   0.000   0.000   0.000   0.000   0.000   0.000   0.000   0.000   0.000      0      0      0       0       0   5.500   19.000
   16 303     6     5   3.893     9  0.000      0      0      0      0      0      0      0      0    0.0  0.000      0   0.00   0.00   0.00   0.00   0.00   0.00   0.00   1.00   0.00    0.0   0.00      0      0      0.0   0.00   0.00 0.0440   0.000   0.000   0.000   0.000   0.000   0.000   0.000   0.000   0.000   0.000      0      0      0       0       0   6.500   25.500
   16 304     7     6   4.733     9  0.000      0      0      0      0      0      0      0      0    0.0  0.000      0   0.00   0.00   0.00   0.00   0.00   0.00   0.00   1.00   0.00    0.0   0.00      0      0      0.0   0.00   0.00 0.0500   0.000   0.000   0.000   0.000   0.000   0.000   0.000   0.000   0.000   0.000      0      0      0       0       0   5.500   31.000
   16 305     8     7   5.496     9  0.000      0      0      0      0      0      0      0      0    0.0  0.000      0   0.00   0.00   0.00   0.00   0.00   0.00   0.00   1.00   0.00    0.0   0.00      0      0      0.0   0.00   0.00 0.0500   0.000   0.000   0.000   0.000   0.000   0.000   0.000   0.000   0.000   0.000      0      0      0       0       0   5.000   36.000
   16 306     9     8   5.954     9  0.000      0      0      0      0      0      0      0      0    0.0  0.000      0   0.00   0.00   0.00   0.00   0.00   0.00   0.00   1.00   0.00    0.0   0.00      0      0      0.0   0.00   0.00 0.0500   0.000   0.000   0.000   0.000   0.000   0.000   0.000   0.000   0.000   0.000      0      0      0       0       0   3.000   39.000
   16 307    10     9   6.794     9  0.000      0      0      0      0      0      0      0      0    0.0  0.000      0   0.00   0.00   0.00   0.00   0.00   0.00   0.00   1.00   0.00    0.0   0.00      0      0      0.0   0.00   0.00 0.0500   0.000   0.000   0.000   0.000   0.000   0.000   0.000   0.000   0.000   0.000      0      0      0       0       0   5.500   44.500
   16 308    11    10   7.496     9  0.000      0      0      0      0      0      0      0      0    0.0  0.000      0   0.00   0.00   0.00   0.00   0.00   0.00   0.00   1.00   0.00    0.0   0.00      0      0      0.0   0.00   0.00 0.0500   0.000   0.000   0.000   0.000   0.000   0.000   0.000   0.000   0.000   0.000      0      0      0       0       0   4.597   49.097
   16 309    12    11   8.136     9  0.000      0      0      0      0      0      0      0      0    0.0  0.000      0   0.00   0.00   0.00   0.00   0.00   0.00   0.00   1.00   0.00    0.0   0.00      0      0      0.0   0.00   0.00 0.0500   0.000   0.000   0.000   0.000   0.000   0.000   0.000   0.000   0.000   0.000      0      0      0       0       0   4.195   53.292
   16 310    13    12   9.205     9  0.000      0      0      0      0      0      0      0      0    0.0  0.000      0   0.00   0.00   0.00   0.00   0.00   0.00   0.00   1.00   0.00    0.0   0.00      0      0      0.0   0.00   0.00 0.0500   0.000   0.000   0.000   0.000   0.000   0.000   0.000   0.000   0.000   0.000      0      0      0       0       0   7.000   60.292
   16 311    14    13   9.816     9  0.000      0      0      0      0      0      0      0      0    0.0  0.000      0   0.00   0.00   0.00   0.00   0.00   0.00   0.00   1.00   0.00    0.0   0.00      0      0      0.0   0.00   0.00 0.0500   0.000   0.000   0.000   0.000   0.000   0.000   0.000   0.000   0.000   0.000      0      0      0       0       0   4.000   64.292
   16 312    15    14  10.045     1  0.016      9      0      0     24     10     10      0      0    0.0  0.000      0   0.00   0.00   1.00   0.00   0.00   0.00   0.00   1.00   6.33  400.0   0.00      0      0    299.9   0.00   0.00 0.0540   0.047   0.002   0.000   0.000   0.000   0.000   0.000   0.000   0.000   0.000      0      0      0       0       0   2.098    0.890
   16 313    16    15  10.108     1  0.016      9      0      0     24     10     10      0      0    0.0  0.000      0   0.00   0.00   1.00   0.00   0.00   0.00   0.00   1.00   6.30  400.0   0.00      0      0    299.7   0.00   0.00 0.0580   0.046   0.002   0.000   0.000   0.000   0.000   0.000   0.000   0.000   0.000      0      0      0       0       0   2.098    2.163
   16 314    17    16  10.170     1  0.017      9      0      0     24     10     10      0      0    0.0  0.000      0   0.00   0.00   1.00   0.00   0.00   0.00   0.00   1.00   6.25  400.0   0.00      0      0    299.5   0.00   0.00 0.0618   0.046   0.002   0.000   0.000   0.000   0.000   0.000   0.000   0.000   0.000      0      0      0       0       0   2.000    3.399
   16 315    18    17  10.296     1  0.017     10      0      0     24     11     11      0      0    0.0  0.000      0   0.00   0.00   1.00   0.00   0.00   0.00   0.00   1.00   5.89  400.0   0.00      0      0    299.1   0.00   0.00 0.0694   0.046   0.002   0.000   0.000   0.000   0.000   0.000   0.000   0.000   0.000      0      0      0       0       0   4.000    5.917
   16 316    19    18  10.392     1  0.018     11      0      0     23     12     12      0      0    0.0  0.000      1   0.00   0.00   1.00   0.00   0.00   0.00   0.00   1.00   6.03  400.0   0.00      0      1    298.8   0.00   0.00 0.0751   0.045   0.002   0.000   0.000   0.000   0.000   0.000   0.000   0.000   0.000      0      0      0       0       0   3.000    7.843
   16 317    20    19  10.461     1  0.018     11      0      0     23     12     12      0      0    0.0  0.000      1   0.00   0.00   1.00   0.00   0.00   0.00   0.00   1.00   6.24  400.0   0.00      0      1    298.6   0.00   0.00 0.0790   0.045   0.002   0.000   0.000   0.000   0.000   0.000   0.000   0.000   0.000      0      0      0       0       0   2.098    9.213
   16 318    21    20  10.484     1  0.018     11      0      0     23     12     12      0      0    0.0  0.000      1   0.00   0.00   1.00   0.00   0.00   0.00   0.00   1.00   6.30  400.0   0.00      0      1    298.6   0.00   0.00 0.0804   0.044   0.002   0.000   0.000   0.000   0.000   0.000   0.000   0.000   0.000      0      0      0       0       0   0.695    9.673
   16 319    22    21  10.511     1  0.018     11      0      0     23     12     12      0      0    0.0  0.000      1   0.00   0.00   1.00   0.00   0.00   0.00   0.00   1.00   6.30  400.0   0.00      0      1    298.5   0.00   0.00 0.0819   0.044   0.002   0.000   0.000   0.000   0.000   0.000   0.000   0.000   0.000      0      0      0       0       0   0.828   10.227
   16 320    23    22  10.617     1  0.018     11      0      0     23     12     12      0      0    0.0  0.000      1   0.00   0.00   1.00   0.00   0.00   0.00   0.00   1.00   6.06  400.0   0.00      0      1    298.2   0.00   0.00 0.0878   0.043   0.002   0.000   0.000   0.000   0.000   0.000   0.000   0.000   0.000      0      0      0       0       0   3.098   12.332
   16 321    24    23  10.858     1  0.019     15      0      0     23     16     16      0      0    0.0  0.000      1   0.00   0.00   1.00   0.00   0.00   0.00   0.00   1.00   4.76  400.0   0.00      0      1    297.5   0.00   0.00 0.1011   0.043   0.002   0.000   0.000   0.000   0.000   0.000   0.000   0.000   0.000      0      0      0       0       0   7.000   17.152
   16 322    25    24  11.102     1  0.019     19      0      0     23     20     20      0      0    0.0  0.000      1   0.00   0.00   1.00   0.00   0.00   0.00   0.00   1.00   4.88  400.0   0.00      0      1    296.9   0.00   0.00 0.1144   0.043   0.002   0.000   0.000   0.000   0.000   0.000   0.000   0.000   0.000      0      0      0       0       0   7.000   22.036
   16 323    26    25  11.367     1  0.020     24      0      0     23     26     26      0      0    0.0  0.000      1   0.00   0.00   1.00   0.00   0.00   0.00   0.00   1.00   4.26  400.0   0.00      0      1    296.2   0.00   0.00 0.1286   0.042   0.002   0.000   0.000   0.000   0.000   0.000   0.000   0.000   0.000      0      0      0       0       0   7.500   27.334
   16 324    27    26  11.491     1  0.020     25      0      0     23     27     27      0      0    0.0  0.000      1   0.00   0.00   1.00   0.00   0.00   0.00   0.00   1.00   4.29  400.0   0.00      0      1    295.8   0.00   0.00 0.1353   0.042   0.002   0.000   0.000   0.000   0.000   0.000   0.000   0.000   0.000      0      0      0       0       0   3.500   29.813
   16 325    28    27  11.650     1  0.022     27      0      0     23     30     30      0      0    0.0  0.000      2   0.00   0.00   1.00   0.00   0.00   0.00   0.00   1.00   4.31  400.0   0.00      0      2    295.4   0.00   0.00 0.1438   0.041   0.002   0.000   0.000   0.000   0.000   0.000   0.000   0.000   0.000      0      0      0       0       0   4.500   32.992
   16 326    29    28  11.931     1  0.023     34      0      0     23     37     37      0      0    0.0  0.000      2   0.00   0.00   1.00   0.00   0.00   0.00   0.00   1.00   3.78  400.0   0.00      0      2    294.7   0.00   0.00 0.1590   0.041   0.002   0.000   0.000   0.000   0.000   0.000   0.000   0.000   0.000      0      0      0       0       0   8.000   38.625
   16 327    30    29  12.195     1  0.024     39      0      0     23     43     43      0      0    0.0  0.000      3   0.00   0.00   1.00   0.39   0.00   0.00   0.00   1.00   3.55  400.0   0.00      0      3    294.1   0.00   0.00 0.1722   0.041   0.002   0.000   0.000   0.000   0.000   0.000   0.000   0.000   0.000      0      0      0       0       0   7.500   43.892
   16 328    31    30  12.387     1  0.025     43      0      0     23     46     46      0      0    0.0  0.000      3   0.00   0.00   1.00   0.48   0.00   0.00   0.00   1.00   3.47  400.0   0.00      0      3    293.6   0.00   0.00 0.1819   0.040   0.002   0.000   0.000   0.000   0.000   0.000   0.000   0.000   0.000      0      0      0       0       0   5.500   47.744
   16 329    32    31  12.544     1  0.026     45      0      0     23     49     49      0      0    0.0  0.000      3   0.00   0.00   1.00   0.52   0.00   0.00   0.00   1.00   3.46  400.0   0.00      0      3    293.3   0.00   0.00 0.1898   0.040   0.002   0.000   0.000   0.000   0.000   0.000   0.000   0.000   0.000      0      0      0       0       0   4.500   50.887
   16 330    33    32  12.736     1  0.026     48      0      0     23     52     52      0      0    0.0  0.000      3   0.00   0.00   1.00   0.54   0.00   0.00   0.00   1.00   3.37  400.0   0.00      0      3    292.8   0.00   0.00 0.1995   0.039   0.002   0.000   0.000   0.000   0.000   0.000   0.000   0.000   0.000      0      0      0       0       0   5.500   54.719
   16 331    34    33  12.927     1  0.026     52      0      0     23     55     55      0      0    0.0  0.000      4   0.00   0.00   1.00   0.57   0.00   0.00   0.00   1.00   3.29  400.0   0.00      0      4    292.4   0.00   0.00 0.2080   0.039   0.002   0.000   0.000   0.000   0.000   0.000   0.000   0.000   0.000      0      0      0       0       0   5.500   58.541
   16 332    35    34  13.048     1  0.027     53      0      0     23     57     57      0      0    0.0  0.000      4   0.00   0.00   1.00   0.60   0.00   0.00   0.00   1.00   3.27  400.0   0.00      0      4    292.1   0.00   0.00 0.2133   0.039   0.002   0.000   0.000   0.000   0.000   0.000   0.000   0.000   0.000      0      0      0       0       0   3.500   60.967
   16 333    36    35  13.061     1  0.027     53      0      0     22     57     57      0      0    0.0  0.000      4   0.00   0.00   1.00   0.61   0.00   0.00   0.00   1.00   3.39  400.0   0.00      0      4    292.1   0.00   0.00 0.2139   0.038   0.002   0.000   0.000   0.000   0.000   0.000   0.000   0.000   0.000      0      0      0       0       0   0.353   61.211
   16 334    37    36  13.061     1  0.027     53      0      0     22     57     57      0      0    0.0  0.000      4   0.00   0.00   1.00   0.58   0.00   0.00   0.00   1.00   3.49  400.0   0.00      0      4    292.1   0.00   0.00 0.2139   0.038   0.002   0.000   0.000   0.000   0.000   0.000   0.000   0.000   0.000      0      0      0       0       0   0.000   61.211
   16 335    38    37  13.073     1  0.027     53      0      0     22     57     57      0      0    0.0  0.000      4   0.00   0.00   1.00   0.56   0.00   0.00   0.00   1.00   3.58  400.0   0.00      0      4    292.1   0.00   0.00 0.2144   0.037   0.002   0.000   0.000   0.000   0.000   0.000   0.000   0.000   0.000      0      0      0       0       0   0.355   61.455
   16 336    39    38  13.141     1  0.027     54      0      0     22     58     58      0      0    0.0  0.000      4   0.00   0.00   1.00   0.53   0.00   0.00   0.00   1.00   3.63  400.0   0.00      0      4    291.9   0.00   0.00 0.2175   0.037   0.002   0.000   0.000   0.000   0.000   0.000   0.000   0.000   0.000      0      0      0       0       0   2.000   62.829
   16 337    40    39  13.227     1  0.028     55      0      0     22     60     60      0      0    0.0  0.000      4   0.00   0.00   1.00   0.52   0.00   0.00   0.00   1.00   3.65  400.0   0.00      0      4    291.7   0.00   0.00 0.2214   0.037   0.002   0.000   0.000   0.000   0.000   0.000   0.000   0.000   0.000      0      0      0       0       0   2.500   64.543
   16 338    41    40  13.227     1  0.028     55      0      0     22     60     60      0      0    0.0  0.000      4   0.00   0.00   1.00   0.52   0.00   0.00   0.00   1.00   3.74  400.0   0.00      0      4    291.7   0.00   0.00 0.2214   0.036   0.002   0.000   0.000   0.000   0.000   0.000   0.000   0.000   0.000      0      0      0       0       0   0.000   64.543
   16 339    42    41  13.227     1  0.028     55      0      0     21     60     60      0      0    0.0  0.000      4   0.00   0.00   1.00   0.50   0.00   0.00   0.00   1.00   3.83  400.0   0.00      0      4    291.7   0.00   0.00 0.2214   0.036   0.002   0.000   0.000   0.000   0.000   0.000   0.000   0.000   0.000      0      0      0       0       0   0.000   64.543
   16 340    43    42  13.230     1  0.028     55      0      0     21     60     60      0      0    0.0  0.000      4   0.00   0.00   1.00   0.48   0.00   0.00   0.00   1.00   3.90  400.0   0.00      0      4    291.7   0.00   0.00 0.2215   0.036   0.002   0.000   0.000   0.000   0.000   0.000   0.000   0.000   0.000      0      0      0       0       0   0.094   64.607
   16 341    44    43  13.230     1  0.028     55      0      0     21     60     60      0      0    0.0  0.000      4   0.00   0.00   1.00   0.46   0.00   0.00   0.00   1.00   3.96  400.0   0.00      0      4    291.7   0.00   0.00 0.2215   0.035   0.002   0.000   0.000   0.000   0.000   0.000   0.000   0.000   0.000      0      0      0       0       0   0.000   64.607
   16 342    45    44  13.245     1  0.028     55      0      0     21     60     60      0      0    0.0  0.000      4   0.00   0.00   1.00   0.44   0.00   0.00   0.00   1.00   4.03  400.0   0.00      0      4    291.7   0.00   0.00 0.2222   0.035   0.002   0.000   0.000   0.000   0.000   0.000   0.000   0.000   0.000      0      0      0       0       0   0.443   64.908
   16 343    46    45  13.282     1  0.028     55      0      0     21     60     60      0      0    0.0  0.000      4   0.00   0.00   1.00   0.42   0.00   0.00   0.00   1.00   4.09  400.0   0.00      0      4    291.6   0.00   0.00 0.2238   0.035   0.002   0.000   0.000   0.000   0.000   0.000   0.000   0.000   0.000      0      0      0       0       0   1.066   65.631
   16 344    47    46  13.383     1  0.028     56      0      0     20     61     61      0      0    0.0  0.000      4   0.00   0.00   1.00   0.40   0.00   0.00   0.00   1.00   4.09  400.0   0.00      0      4    291.4   0.00   0.00 0.2284   0.034   0.002   0.000   0.000   0.000   0.000   0.000   0.000   0.000   0.000      0      0      0       0       0   2.981   67.650
   16 345    48    47  13.524     1  0.030     58      0      0     21     63     63      0      0    0.0  0.000      5   0.00   0.00   1.00   0.40   0.00   0.00   0.00   1.00   3.98  400.0   0.00      0      5    291.1   0.00   0.00 0.2349   0.034   0.002   0.000   0.000   0.000   0.000   0.000   0.000   0.000   0.000      0      0      0       0       0   4.195   70.488
   16 346    49    48  13.602     1  0.030     59      0      0     21     64     64      0      0    0.0  0.000      5   0.00   0.00   1.00   0.45   0.00   0.00   0.00   1.00   4.00  400.0   0.00      0      5    290.9   0.00   0.00 0.2384   0.034   0.002   0.000   0.000   0.000   0.000   0.000   0.000   0.000   0.000      0      0      0       0       0   2.308   72.047
   16 347    50    49  13.690     1  0.031     59      0      0     20     65     65      0      0    0.0  0.000      5   0.00   0.00   1.00   0.44   0.00   0.00   0.00   1.00   4.00  400.0   0.00      0      5    290.7   0.00   0.00 0.2424   0.033   0.002   0.000   0.000   0.000   0.000   0.000   0.000   0.000   0.000      0      0      0       0       0   2.598   73.801
   16 348    51    50  13.768     1  0.031     60      0      0     21     66     66      0      0    0.0  0.000      5   0.00   0.00   1.00   0.44   0.00   0.00   0.00   1.00   4.02  400.0   0.00      0      5    290.6   0.00   0.00 0.2460   0.033   0.002   0.000   0.000   0.000   0.000   0.000   0.000   0.000   0.000      0      0      0       0       0   2.308   75.357
   16 349    52    51  13.903     1  0.032     63      0      0     21     69     69      0      0    0.0  0.000      6   0.00   0.00   1.00   0.44   0.00   0.00   0.00   1.00   3.88  400.0   0.00      0      6    290.3   0.00   0.00 0.2522   0.033   0.002   0.000   0.000   0.000   0.000   0.000   0.000   0.000   0.000      0      0      0       0       0   4.000   78.051
   16 350    53    52  13.970     1  0.033     63      0      0     20     69     69      0      0    0.0  0.000      6   0.00   0.00   1.00   0.49   0.00   0.00   0.00   1.00   3.92  400.0   0.00      0      6    290.2   0.00   0.00 0.2552   0.032   0.002   0.000   0.000   0.000   0.000   0.000   0.000   0.000   0.000      0      0      0       0       0   2.000   79.398
   16 351    54    53  13.990     1  0.033     63      0      0     20     69     69      0      0    0.0  0.000      6   0.00   0.00   1.00   0.48   0.00   0.00   0.00   1.00   3.96  400.0   0.00      0      6    290.1   0.00   0.00 0.2562   0.032   0.002   0.000   0.000   0.000   0.000   0.000   0.000   0.000   0.000      0      0      0       0       0   0.598   79.800
   16 352    55    54  13.997     1  0.033     63      0      0     20     69     69      0      0    0.0  0.000      6   0.00   0.00   1.00   0.47   0.00   0.00   0.00   1.00   4.00  400.0   0.00      0      6    290.1   0.00   0.00 0.2565   0.032   0.002   0.000   0.000   0.000   0.000   0.000   0.000   0.000   0.000      0      0      0       0       0   0.195   79.931
   16 353    56    55  14.033     1  0.033     63      0      0     20     69     69      0      0    0.0  0.000      6   0.00   0.00   1.00   0.46   0.00   0.00   0.00   1.00   4.04  400.0   0.00      0      6    290.0   0.00   0.00 0.2581   0.031   0.002   0.000   0.000   0.000   0.000   0.000   0.000   0.000   0.000      0      0      0       0       0   1.098   80.668
   16 354    57    56  14.070     1  0.033     63      0      0     20     69     69      0      0    0.0  0.000      6   0.00   0.00   1.00   0.44   0.00   0.00   0.00   1.00   4.08  400.0   0.00      0      6    290.0   0.00   0.00 0.2598   0.031   0.002   0.000   0.000   0.000   0.000   0.000   0.000   0.000   0.000      0      0      0       0       0   1.098   81.406
   16 355    58    57  14.077     1  0.033     63      0      0     19     69     69      0      0    0.0  0.000      6   0.00   0.00   1.00   0.43   0.00   0.00   0.00   1.00   4.11  400.0   0.00      0      6    290.0   0.00   0.00 0.2601   0.031   0.002   0.000   0.000   0.000   0.000   0.000   0.000   0.000   0.000      0      0      0       0       0   0.195   81.537
   16 356    59    58  14.103     1  0.033     63      0      0     19     69     69      0      0    0.0  0.000      6   0.00   0.00   1.00   0.42   0.00   0.00   0.00   1.00   4.15  400.0   0.00      0      6    289.9   0.00   0.00 0.2614   0.030   0.002   0.000   0.000   0.000   0.000   0.000   0.000   0.000   0.000      0      0      0       0       0   0.793   82.069
   16 357    60    59  14.118     1  0.033     63      0      0     19     69     69      0      0    0.0  0.000      6   0.00   0.00   1.00   0.41   0.00   0.00   0.00   1.00   4.18  400.0   0.00      0      6    289.9   0.00   0.00 0.2620   0.030   0.002   0.000   0.000   0.000   0.000   0.000   0.000   0.000   0.000      0      0      0       0       0   0.443   82.367
   16 358    61    60  14.158     1  0.033     63      0      0     19     69     69      0      0    0.0  0.000      6   0.00   0.00   1.00   0.40   0.00   0.00   0.00   1.00   4.21  400.0   0.00      0      6    289.8   0.00   0.00 0.2639   0.030   0.002   0.000   0.000   0.000   0.000   0.000   0.000   0.000   0.000      0      0      0       0       0   1.195   83.170
   16 359    62    61  14.259     1  0.033     63      0      0     19     69     69      0      0    0.0  0.000      6   0.00   0.00   1.00   0.39   0.00   0.00   0.00   1.00   4.23  400.0   0.00      0      6    289.6   0.00   0.00 0.2685   0.029   0.002   0.000   0.000   0.000   0.000   0.000   0.000   0.000   0.000      0      0      0       0       0   3.000   85.186
   16 360    63    62  14.461     1  0.034     63      0      0     19     70     70      0      0    0.0  0.000      6   0.00   0.00   1.00   0.39   0.00   0.00   0.00   1.00   4.24  400.0   0.00      0      6    289.2   0.00   0.00 0.2777   0.029   0.002   0.000   0.000   0.000   0.000   0.000   0.000   0.000   0.000      0      0      0       0       0   6.000   89.219
   16 361    64    63  14.663     1  0.035     64      0      0     19     70     70      0      0    0.0  0.000      6   0.00   0.00   1.00   0.38   0.00   0.00   0.00   1.00   4.25  400.0   0.00      0      6    288.8   0.00   0.00 0.2870   0.029   0.002   0.000   0.000   0.000   0.000   0.000   0.000   0.000   0.000      0      0      0       0       0   6.000   93.254
   16 362    65    64  14.730     1  0.035     64      0      0     19     71     71      0      0    0.0  0.000      7   0.00   0.00   1.00   0.38   0.00   0.00   0.00   1.00   4.27  400.0   0.00      0      7    288.7   0.00   0.00 0.2901   0.029   0.002   0.000   0.000   0.000   0.000   0.000   0.000   0.000   0.000      0      0      0       0       0   2.000   94.600
   16 363    66    65  14.781     1  0.036     64      0      0     19     71     71      0      0    0.0  0.000      7   0.00   0.00   1.00   0.38   0.00   0.00   0.00   1.00   4.29  400.0   0.00      0      7    288.6   0.00   0.00 0.2924   0.028   0.002   0.000   0.000   0.000   0.000   0.000   0.000   0.000   0.000      0      0      0       0       0   1.500   95.610
   16 364    67    66  14.842     1  0.036     64      0      0     19     72     72      0      0    0.0  0.000      7   0.00   0.00   1.00   0.38   0.00   0.00   0.00   1.00   4.31  400.0   0.00      0      7    288.5   0.00   0.00 0.2952   0.028   0.002   0.000   0.000   0.000   0.000   0.000   0.000   0.000   0.000      0      0      0       0       0   1.812   96.832
   16 365    68    67  14.856     1  0.036     64      0      0     19     72     72      0      0    0.0  0.000      7   0.00   0.00   1.00   0.38   0.00   0.00   0.00   1.00   4.34  400.0   0.00      0      7    288.5   0.00   0.00 0.2958   0.028   0.002   0.000   0.000   0.000   0.000   0.000   0.000   0.000   0.000      0      0      0       0       0   0.414   97.111
   16 366    69    68  14.856     1  0.036     64      0      0     19     72     72      0      0    0.0  0.000      7   0.00   0.00   1.00   0.37   0.00   0.00   0.00   1.00   4.38  400.0   0.00      0      7    288.5   0.00   0.00 0.2958   0.028   0.002   0.000   0.000   0.000   0.000   0.000   0.000   0.000   0.000      0      0      0       0       0   0.000   97.111
   17 001    70    69  14.856     1  0.036     64      0      0     19     72     72      0      0    0.0  0.000      7   0.00   0.00   1.00   0.36   0.00   0.00   0.00   1.00   4.41  400.0   0.00      0      7    288.5   0.00   0.00 0.2958   0.027   0.002   0.000   0.000   0.000   0.000   0.000   0.000   0.000   0.000      0      0      0       0       0   0.016   97.122
   17 002    71    70  14.856     1  0.036     64      0      0     18     72     72      0      0    0.0  0.000      7   0.00   0.00   1.00   0.35   0.00   0.00   0.00   1.00   4.44  400.0   0.00      0      7    288.5   0.00   0.00 0.2958   0.027   0.001   0.000   0.000   0.000   0.000   0.000   0.000   0.000   0.000      0      0      0       0       0   0.000   97.122
   17 003    72    71  14.863     1  0.036     64      0      0     18     72     72      0      0    0.0  0.000      7   0.00   0.00   1.00   0.34   0.00   0.00   0.00   1.00   4.47  400.0   0.00      0      7    288.4   0.00   0.00 0.2961   0.027   0.001   0.000   0.000   0.000   0.000   0.000   0.000   0.000   0.000      0      0      0       0       0   0.195   97.254
   17 004    73    72  14.883     1  0.036     64      0      0     18     72     72      0      0    0.0  0.000      7   0.00   0.00   1.00   0.33   0.00   0.00   0.00   1.00   4.50  400.0   0.00      0      7    288.4   0.00   0.00 0.2970   0.026   0.001   0.000   0.000   0.000   0.000   0.000   0.000   0.000   0.000      0      0      0       0       0   0.598   97.659
   17 005    74    73  14.883     1  0.036     64      0      0     18     72     72      0      0    0.0  0.000      7   0.00   0.00   1.00   0.33   0.00   0.00   0.00   1.00   4.52  400.0   0.00      0      7    288.4   0.00   0.00 0.2970   0.026   0.001   0.000   0.000   0.000   0.000   0.000   0.000   0.000   0.000      0      0      0       0       0   0.000   97.659
   17 006    75    74  14.883     1  0.036     64      0      0     18     72     72      0      0    0.0  0.000      7   0.00   0.00   1.00   0.32   0.00   0.00   0.00   1.00   4.55  400.0   0.00      0      7    288.4   0.00   0.00 0.2970   0.026   0.001   0.000   0.000   0.000   0.000   0.000   0.000   0.000   0.000      0      0      0       0       0   0.000   97.659
   17 007    76    75  14.883     1  0.036     64      0      0     17     72     72      0      0    0.0  0.000      7   0.00   0.00   1.00   0.31   0.00   0.00   0.00   1.00   4.58  400.0   0.00      0      7    288.4   0.00   0.00 0.2970   0.026   0.001   0.000   0.000   0.000   0.000   0.000   0.000   0.000   0.000      0      0      0       0       0   0.000   97.659
   17 008    77    76  14.891     1  0.036     64      0      0     17     72     72      0      0    0.0  0.000      7   0.00   0.00   1.00   0.30   0.00   0.00   0.00   1.00   4.60  400.0   0.00      0      7    288.4   0.00   0.00 0.2974   0.025   0.001   0.000   0.000   0.000   0.000   0.000   0.000   0.000   0.000      0      0      0       0       0   0.222   97.810
   17 009    78    77  14.901     1  0.036     64      0      0     17     72     72      0      0    0.0  0.000      7   0.00   0.00   1.00   0.30   0.00   0.00   0.00   1.00   4.63  400.0   0.00      0      7    288.4   0.00   0.00 0.2978   0.025   0.001   0.000   0.000   0.000   0.000   0.000   0.000   0.000   0.000      0      0      0       0       0   0.296   98.013
   17 010    79    78  14.901     1  0.036     64      0      0     17     72     72      0      0    0.0  0.000      7   0.00   0.00   1.00   0.29   0.00   0.00   0.00   1.00   4.65  400.0   0.00      0      7    288.4   0.00   0.00 0.2979   0.025   0.001   0.000   0.000   0.000   0.000   0.000   0.000   0.000   0.000      0      0      0       0       0   0.019   98.025
   17 011    80    79  14.912     1  0.036     64      0      0     17     72     72      0      0    0.0  0.000      7   0.00   0.00   1.00   0.28   0.00   0.00   0.00   1.00   4.68  400.0   0.00      0      7    288.4   0.00   0.00 0.2983   0.025   0.001   0.000   0.000   0.000   0.000   0.000   0.000   0.000   0.000      0      0      0       0       0   0.311   98.239
   17 012    81    80  14.981     1  0.037     64      0      0     17     72     72      0      0    0.0  0.000      7   0.00   0.00   1.00   0.28   0.00   0.00   0.00   1.00   4.69  400.0   0.00      0      7    288.2   0.00   0.00 0.3014   0.024   0.001   0.000   0.000   0.000   0.000   0.000   0.000   0.000   0.000      0      0      0       0       0   2.000   99.615
   17 013    82    81  15.056     1  0.037     64      0      0     17     72     72      0      0    0.0  0.000      7   0.00   0.00   1.00   0.27   0.00   0.00   0.00   1.00   4.70  400.0   0.00      0      7    288.1   0.00   0.00 0.3045   0.024   0.001   0.000   0.000   0.000   0.000   0.000   0.000   0.000   0.000      0      0      0       0       0   2.195  101.129
   17 014    83    82  15.063     1  0.037     64      0      0     17     72     72      0      0    0.0  0.000      7   0.00   0.00   1.00   0.27   0.00   0.00   0.00   1.00   4.72  400.0   0.00      0      7    288.1   0.00   0.00 0.3048   0.024   0.001   0.000   0.000   0.000   0.000   0.000   0.000   0.000   0.000      0      0      0       0       0   0.195  101.264
   17 015    84    83  15.073     1  0.037     64      0      0     16     72     72      0      0    0.0  0.000      7   0.00   0.00   1.00   0.27   0.00   0.00   0.00   1.00   4.75  400.0   0.00      0      7    288.1   0.00   0.00 0.3052   0.024   0.001   0.000   0.000   0.000   0.000   0.000   0.000   0.000   0.000      0      0      0       0       0   0.296  101.469
   17 016    85    84  15.074     1  0.037     64      0      0     16     72     72      0      0    0.0  0.000      7   0.00   0.00   1.00   0.26   0.00   0.00   0.00   1.00   4.77  400.0   0.00      0      7    288.1   0.00   0.00 0.3052   0.023   0.001   0.000   0.000   0.000   0.000   0.000   0.000   0.000   0.000      0      0      0       0       0   0.024  101.486
   17 017    86    85  15.074     1  0.037     64      0      0     16     72     72      0      0    0.0  0.000      7   0.00   0.00   1.00   0.25   0.00   0.00   0.00   1.00   4.79  400.0   0.00      0      7    288.1   0.00   0.00 0.3052   0.023   0.001   0.000   0.000   0.000   0.000   0.000   0.000   0.000   0.000      0      0      0       0       0   0.000  101.486
   17 018    87    86  15.074     1  0.037     64      0      0     16     72     72      0      0    0.0  0.000      7   0.00   0.00   1.00   0.25   0.00   0.00   0.00   1.00   4.81  400.0   0.00      0      7    288.1   0.00   0.00 0.3052   0.023   0.001   0.000   0.000   0.000   0.000   0.000   0.000   0.000   0.000      0      0      0       0       0   0.000  101.486
   17 019    88    87  15.074     1  0.037     64      0      0     16     72     72      0      0    0.0  0.000      7   0.00   0.00   1.00   0.24   0.00   0.00   0.00   1.00   4.84  400.0   0.00      0      7    288.1   0.00   0.00 0.3052   0.023   0.001   0.000   0.000   0.000   0.000   0.000   0.000   0.000   0.000      0      0      0       0       0   0.000  101.486
   17 020    89    88  15.075     1  0.037     64      0      0     16     72     72      0      0    0.0  0.000      7   0.00   0.00   1.00   0.24   0.00   0.00   0.00   1.00   4.86  400.0   0.00      0      7    288.1   0.00   0.00 0.3052   0.023   0.001   0.000   0.000   0.000   0.000   0.000   0.000   0.000   0.000      0      0      0       0       0   0.010  101.493
   17 021    90    89  15.075     1  0.037     64      0      0     15     72     72      0      0    0.0  0.000      7   0.00   0.00   1.00   0.23   0.00   0.00   0.00   1.00   4.88  400.0   0.00      0      7    288.1   0.00   0.00 0.3052   0.022   0.001   0.000   0.000   0.000   0.000   0.000   0.000   0.000   0.000      0      0      0       0       0   0.000  101.493
   17 022    91    90  15.075     1  0.037     64      0      0     15     72     72      0      0    0.0  0.000      7   0.00   0.00   1.00   0.22   0.00   0.00   0.00   1.00   4.90  400.0   0.00      0      7    288.1   0.00   0.00 0.3052   0.022   0.001   0.000   0.000   0.000   0.000   0.000   0.000   0.000   0.000      0      0      0       0       0   0.000  101.493
   17 023    92    91  15.075     1  0.037     64      0      0     15     72     72      0      0    0.0  0.000      7   0.00   0.00   1.00   0.22   0.00   0.00   0.00   1.00   4.92  400.0   0.00      0      7    288.1   0.00   0.00 0.3052   0.022   0.001   0.000   0.000   0.000   0.000   0.000   0.000   0.000   0.000      0      0      0       0       0   0.000  101.493
   17 024    93    92  15.075     1  0.037     64      0      0     15     72     72      0      0    0.0  0.000      7   0.00   0.00   1.00   0.21   0.00   0.00   0.00   1.00   4.94  400.0   0.00      0      7    288.1   0.00   0.00 0.3052   0.022   0.001   0.000   0.000   0.000   0.000   0.000   0.000   0.000   0.000      0      0      0       0       0   0.000  101.493
   17 025    94    93  15.075     1  0.037     64      0      0     15     72     72      0      0    0.0  0.000      7   0.00   0.00   1.00   0.21   0.00   0.00   0.00   1.00   4.96  400.0   0.00      0      7    288.1   0.00   0.00 0.3052   0.021   0.001   0.000   0.000   0.000   0.000   0.000   0.000   0.000   0.000      0      0      0       0       0   0.000  101.493
   17 026    95    94  15.079     1  0.037     64      0      0     15     72     72      0      0    0.0  0.000      7   0.00   0.00   1.00   0.20   0.00   0.00   0.00   1.00   4.98  400.0   0.00      0      7    288.1   0.00   0.00 0.3054   0.021   0.001   0.000   0.000   0.000   0.000   0.000   0.000   0.000   0.000      0      0      0       0       0   0.111  101.572
   17 027    96    95  15.079     1  0.037     64      0      0     15     72     72      0      0    0.0  0.000      7   0.00   0.00   1.00   0.20   0.00   0.00   0.00   1.00   5.00  400.0   0.00      0      7    288.1   0.00   0.00 0.3054   0.021   0.001   0.000   0.000   0.000   0.000   0.000   0.000   0.000   0.000      0      0      0       0       0   0.000  101.572
   17 028    97    96  15.082     1  0.037     64      0      0     14     72     72      0      0    0.0  0.000      7   0.00   0.00   1.00   0.19   0.00   0.00   0.00   1.00   5.02  400.0   0.00      0      7    288.0   0.00   0.00 0.3055   0.021   0.001   0.000   0.000   0.000   0.000   0.000   0.000   0.000   0.000      0      0      0       0       0   0.089  101.636
   17 029    98    97  15.084     1  0.037     64      0      0     14     72     72      0      0    0.0  0.000      7   0.00   0.00   1.00   0.19   0.00   0.00   0.00   1.00   5.04  400.0   0.00      0      7    288.0   0.00   0.00 0.3056   0.021   0.001   0.000   0.000   0.000   0.000   0.000   0.000   0.000   0.000      0      0      0       0       0   0.058  101.678
   17 030    99    98  15.086     1  0.037     64      0      0     14     72     72      0      0    0.0  0.000      7   0.00   0.00   1.00   0.18   0.00   0.00   0.00   1.00   5.06  400.0   0.00      0      7    288.0   0.00   0.00 0.3057   0.020   0.001   0.000   0.000   0.000   0.000   0.000   0.000   0.000   0.000      0      0      0       0       0   0.071  101.729
   17 031   100    99  15.159     1  0.039     65      0      0     14     73     73      0      0    0.0  0.000      8   0.00   0.00   1.00   0.17   0.00   0.00   0.00   1.00   5.04  400.0   0.00      0      8    287.9   0.00   0.00 0.3085   0.020   0.001   0.000   0.000   0.000   0.000   0.000   0.000   0.000   0.000      0      0      0       0       0   2.000  103.181
   17 032   101   100  15.195     1  0.039     65      0      0     14     74     74      0      0    0.0  0.000      8   0.00   0.00   1.00   0.19   0.00   0.00   0.00   1.00   5.04  400.0   0.00      0      8    287.8   0.00   0.00 0.3099   0.020   0.001   0.000   0.000   0.000   0.000   0.000   0.000   0.000   0.000      0      0      0       0       0   1.000  103.910
   17 033   102   101  15.269     1  0.041     66      0      0     15     75     75      0      0    0.0  0.000      8   0.00   0.00   1.00   0.19   0.00   0.00   0.00   1.00   5.02  400.0   0.00      0      8    287.7   0.00   0.00 0.3126   0.020   0.001   0.000   0.000   0.000   0.000   0.000   0.000   0.000   0.000      0      0      0       0       0   2.000  105.372
   17 034   103   102  15.349     1  0.042     66      0      0     15     75     75      0      0    0.0  0.000      9   0.00   0.00   1.00   0.20   0.00   0.00   0.00   1.00   5.02  400.0   0.00      0      9    287.6   0.00   0.00 0.3157   0.020   0.001   0.000   0.000   0.000   0.000   0.000   0.000   0.000   0.000      0      0      0       0       0   2.195  106.982
   17 035   104   103  15.481     1  0.044     67      0      0     15     77     77      0      0    0.0  0.000     10   0.00   0.00   1.00   0.20   0.00   0.00   0.00   1.00   5.72  400.0   0.00      0     10    287.3   0.00   0.00 0.3207   0.019   0.001   0.000   0.000   0.000   0.000   0.000   0.000   0.000   0.000      0      0      0       0       0   3.598  109.630
   17 036   105   104  15.651     1  0.047     68      0      0     16     79     79      0      0    0.0  0.000     11   0.00   0.00   1.00   0.00   0.00   0.00   0.00   1.00   5.70  400.0   0.00      0     11    287.0   0.00   0.00 0.3271   0.019   0.001   0.000   0.000   0.000   0.000   0.000   0.000   0.000   0.000      0      0      0       0       0   4.597  113.025
   17 037   106   105  15.707     1  0.048     68      0      0     16     79     79      0      0    0.0  0.000     11   0.00   0.00   1.00   0.00   0.00   0.00   0.00   1.00   5.68  400.0   0.00      0     11    287.0   0.00   0.00 0.3292   0.019   0.001   0.000   0.000   0.000   0.000   0.000   0.000   0.000   0.000      0      0      0       0       0   1.500  114.137
   17 038   107   106  15.800     1  0.050     69      0      0     17     81     81      0      0    0.0  0.000     12   0.00   0.00   1.00   0.00   0.00   0.00   0.00   1.00   5.68  400.0   0.00      0     12    286.8   0.00   0.00 0.3327   0.019   0.001   0.000   0.000   0.000   0.000   0.000   0.000   0.000   0.000      0      0      0       0       0   2.500  115.996
   17 039   108   107  15.844     1  0.050     69      0      0     16     81     81      0      0    0.0  0.000     12   0.00   0.00   1.00   0.00   0.00   0.00   0.00   1.00   5.68  400.0   0.00      0     12    286.7   0.00   0.00 0.3343   0.019   0.001   0.000   0.000   0.000   0.000   0.000   0.000   0.000   0.000      0      0      0       0       0   1.195  116.887
   17 040   109   108  15.852     1  0.050     69      0      0     16     81     81      0      0    0.0  0.000     12   0.00   0.00   1.00   0.00   0.00   0.00   0.00   1.00   5.68  400.0   0.00      0     12    286.7   0.00   0.00 0.3346   0.019   0.001   0.000   0.000   0.000   0.000   0.000   0.000   0.000   0.000      0      0      0       0       0   0.195  117.033
   17 041   110   109  15.868     1  0.050     69      0      0     16     81     81      0      0    0.0  0.000     12   0.00   0.00   1.00   0.00   0.00   0.00   0.00   1.00   5.68  400.0   0.00      0     12    286.7   0.00   0.00 0.3352   0.019   0.001   0.000   0.000   0.000   0.000   0.000   0.000   0.000   0.000      0      0      0       0       0   0.443  117.367
   17 042   111   110  15.918     1  0.050     69      0      0     16     81     81      0      0    0.0  0.000     12   0.00   0.00   1.00   0.00   0.00   0.00   0.00   1.00   5.68  400.0   0.00      0     12    286.6   0.00   0.00 0.3371   0.018   0.001   0.000   0.000   0.000   0.000   0.000   0.000   0.000   0.000      0      0      0       0       0   1.328  118.368
   17 043   112   111  15.941     1  0.050     69      0      0     16     81     81      0      0    0.0  0.000     12   0.00   0.00   1.00   0.00   0.00   0.00   0.00   1.00   5.68  400.0   0.00      0     12    286.6   0.00   0.00 0.3379   0.018   0.001   0.000   0.000   0.000   0.000   0.000   0.000   0.000   0.000      0      0      0       0       0   0.598  118.820
   17 044   113   112  16.040     1  0.051     69      0      0     16     82     82      0      0    0.0  0.000     12   0.00   0.00   1.00   0.00   0.00   0.00   0.00   1.00   5.65  400.0   0.00      0     12    286.4   0.00   0.00 0.3415   0.018   0.001   0.000   0.000   0.000   0.000   0.000   0.000   0.000   0.000      0      0      0       0       0   2.598  120.792
   17 045   114   113  16.153     1  0.051     69      0      0     16     82     82      0      0    0.0  0.000     12   0.00   0.00   1.00   0.00   0.00   0.00   0.00   1.00   5.75  400.0   0.00      0     12    286.2   0.00   0.00 0.3457   0.018   0.001   0.000   0.000   0.000   0.000   0.000   0.000   0.000   0.000      0      0      0       0       0   2.981  123.064
   17 046   115   114  16.294     1  0.052     70      0      0     16     82     82      0      0    0.0  0.000     12   0.00   0.00   1.00   0.00   0.00   0.00   0.00   1.00   5.74  400.0   0.00      0     12    286.0   0.00   0.00 0.3508   0.018   0.001   0.000   0.000   0.000   0.000   0.000   0.000   0.000   0.000      0      0      0       0       0   3.673  125.873
   17 047   116   115  16.535     1  0.057     71      0      0     17     86     86      0      0    0.0  0.000     14   0.00   0.00   1.00   0.00   0.00   0.00   0.00   1.00   5.59  400.0   0.00      0     14    285.6   0.00   0.00 0.3596   0.018   0.001   0.000   0.000   0.000   0.000   0.000   0.000   0.000   0.000      0      0      0       0       0   6.299  130.707
   17 048   117   116  16.612     1  0.059     72      0      0     18     87     87      0      0    0.0  0.000     15   0.00   0.00   1.00   0.00   0.00   0.00   0.00   1.00   5.58  400.0   0.00      0     15    285.5   0.00   0.00 0.3624   0.018   0.001   0.000   0.000   0.000   0.000   0.000   0.000   0.000   0.000      0      0      0       0       0   2.000  132.247
   17 049   118   117  16.736     1  0.062     73      0      0     18     89     89      0      0    0.0  0.000     16   0.00   0.00   1.00   0.00   0.00   0.00   0.00   1.00   5.57  400.0   0.00      0     16    285.3   0.00   0.00 0.3668   0.018   0.001   0.000   0.000   0.000   0.000   0.000   0.000   0.000   0.000      0      0      0       0       0   3.195  134.716
   17 050   119   118  16.825     1  0.063     74      0      0     19     90     90      0      0    0.0  0.000     16   0.00   0.00   1.00   0.00   0.00   0.00   0.00   1.00   5.55  400.0   0.00      0     16    285.2   0.00   0.00 0.3700   0.017   0.001   0.000   0.000   0.000   0.000   0.000   0.000   0.000   0.000      0      0      0       0       0   2.308  136.506
   17 051   120   119  17.020     1  0.068     75      0      0     20     93     93      0      0    0.0  0.000     18   0.00   0.00   1.00   0.00   0.00   0.00   0.00   1.00   5.53  400.0   0.00      0     18    284.9   0.00   0.00 0.3770   0.017   0.001   0.000   0.000   0.000   0.000   0.000   0.000   0.000   0.000      0      0      0       0       0   5.000  140.398
   17 052   121   120  17.313     1  0.070     76      0      0     21     95     95      0      0    0.0  0.000     19   0.00   0.00   1.00   0.00   0.00   0.00   0.00   1.00   5.47  400.0   0.00      0     19    284.4   0.00   0.00 0.3874   0.017   0.001   0.000   0.000   0.000   0.000   0.000   0.000   0.000   0.000      0      0      0       0       0   7.500  146.255
   17 053   122   121  17.665     1  0.074     77      0      0     22     98     98      0      0    0.0  0.000     20   0.00   0.00   1.00   0.00   0.00   0.00   0.00   1.00   5.41  400.0   0.00      0     20    283.9   0.00   0.00 0.4000   0.017   0.001   0.000   0.000   0.000   0.000   0.000   0.000   0.000   0.000      0      0      0       0       0   9.000  153.309
   17 054   123   122  18.098     1  0.082     80      0      0     24    104    104      0      0    0.0  0.000     23   0.00   0.00   1.00   0.00   0.00   0.00   0.00   1.00   5.35  400.0   0.00      0     23    283.3   0.00   0.00 0.4153   0.017   0.001   0.000   0.000   0.000   0.000   0.000   0.000   0.000   0.000      0      0      0       0       0  11.000  161.961
   17 055   124   123  18.339     1  0.088     82      0      0     26    108    108      0      0    0.0  0.000     25   0.00   0.00   1.00   0.00   0.00   0.00   0.00   1.00   5.36  400.0   0.00      0     25    283.0   0.00   0.00 0.4229   0.017   0.001   0.000   0.000   0.000   0.000   0.000   0.000   0.000   0.000      0      0      0       0       0   6.097  166.773
   17 056   125   124  18.489     1  0.096     85      0      0     28    113    113      0      0    0.0  0.000     28   0.00   0.00   1.00   0.00   0.00   0.00   0.00   1.00   5.41  400.0   0.00      0     28    282.8   0.00   0.00 0.4276   0.017   0.001   0.000   0.000   0.000   0.000   0.000   0.000   0.000   0.000      0      0      0       0       0   3.803  169.785
   17 057   126   125  18.712     1  0.104     88      0      0     30    119    119      0      0    0.0  0.000     31   0.00   0.00   1.00   0.00   0.00   0.00   0.00   1.00   5.34  400.0   0.00      0     31    282.6   0.00   0.00 0.4346   0.017   0.001   0.000   0.000   0.000   0.000   0.000   0.000   0.000   0.000      0      0      0       0       0   5.597  174.234
   17 058   127   126  18.963     1  0.116     92      0      0     34    128    128      0      0    0.0  0.000     35   0.00   0.00   1.00   0.00   0.00   0.00   0.00   1.00   5.30  400.0   0.00      0     35    282.2   0.00   0.00 0.4425   0.017   0.001   0.000   0.000   0.000   0.000   0.000   0.000   0.000   0.000      0      0      0       0       0   6.299  179.257
   17 059   128   127  19.083     1  0.119     93      0      0     34    130    130      0      0    0.0  0.000     36   0.00   0.00   1.00   0.00   0.00   0.00   0.00   1.00   5.27  400.0   0.00      0     36    282.1   0.00   0.00 0.4462   0.017   0.001   0.000   0.000   0.000   0.000   0.000   0.000   0.000   0.000      0      0      0       0       0   3.000  181.658
   17 060   129   128  19.264     1  0.127     96      0      0     36    135    135      0      0    0.0  0.000     39   0.00   0.00   1.00   0.00   0.00   0.00   0.00   1.00   5.29  400.0   0.00      0     39    281.9   0.00   0.00 0.4518   0.017   0.001   0.000   0.000   0.000   0.000   0.000   0.000   0.000   0.000      0      0      0       0       0   4.500  185.271
   17 061   130   129  19.489     1  0.141    101      0      0     40    145    145      0      0    0.0  0.000     44   0.00   0.00   1.00   0.00   0.00   0.00   0.00   1.00   5.28  400.0   0.00      0     44    281.6   0.00   0.00 0.4588   0.017   0.002   0.000   0.000   0.000   0.000   0.000   0.000   0.000   0.000      0      0      0       0       0   5.597  189.781
   17 062   131   130  19.679     1  0.152    105      0      0     43    153    153      0      0    0.0  0.000     48   0.00   0.00   1.00   0.00   0.00   0.00   0.00   1.00   5.26  400.0   0.00      0     48    281.4   0.00   0.00 0.4647   0.017   0.002   0.001   0.000   0.000   0.000   0.000   0.000   0.000   0.000      0      0      0       0       0   4.695  193.576
   17 063   132   131  20.044     1  0.169    111      0      0     48    165    165      0      0    0.0  0.000     54   0.00   0.00   1.00   0.00   0.00   0.00   0.00   1.00   5.13  400.0   0.00      0     54    281.0   0.00   0.00 0.4759   0.017   0.002   0.001   0.000   0.000   0.000   0.000   0.000   0.000   0.000      0      0      0       0       0   9.000  200.877
   17 064   133   132  20.268     1  0.183    116      0      0     52    175    175      0      0    0.0  0.000     59   0.00   0.00   1.00   0.00   0.00   0.00   0.00   1.00   5.18  400.0   0.00      0     59    280.7   0.00   0.00 0.4827   0.017   0.002   0.001   0.000   0.000   0.000   0.000   0.000   0.000   0.000      0      0      0       0       0   5.500  205.353
   17 065   134   133  20.492     1  0.196    121      0      0     55    185    185      0      0    0.0  0.000     63   0.00   0.00   1.00   0.00   0.00   0.00   0.00   1.00   5.15  400.0   0.00      0     63    280.5   0.00   0.00 0.4896   0.017   0.002   0.001   0.001   0.000   0.000   0.000   0.000   0.000   0.000      0      0      0       0       0   5.500  209.844
   17 066   135   134  20.615     1  0.204    124      0      0     60    190    190      0      0    0.0  0.000     66   0.00   0.00   1.00   0.00   0.00   0.00   0.00   1.00   5.15  400.0   0.00      0     66    280.4   0.00   0.00 0.4933   0.018   0.002   0.001   0.001   0.000   0.000   0.000   0.000   0.000   0.000      0      0      0       0       0   3.000  212.302
   17 067   136   135  20.780     1  0.217    128      0      0     63    200    200      0      0    0.0  0.000     71   0.00   0.00   1.00   0.00   0.00   0.00   0.00   1.00   5.14  400.0   0.00      0     71    280.2   0.00   0.00 0.4983   0.018   0.002   0.001   0.001   0.001   0.000   0.000   0.000   0.000   0.000      0      0      0       0       0   4.000  215.590
   17 068   137   136  21.109     1  0.225    131      0      0     65    205    205      0      0    0.0  0.000     74   0.00   0.00   1.00   0.00   0.00   0.00   0.00   1.00   5.03  400.0   0.00      0     74    279.9   0.00   0.00 0.5083   0.018   0.002   0.001   0.001   0.001   0.000   0.000   0.000   0.000   0.000      0      0      0       0       0   8.000  222.188
   17 069   138   137  21.300     1  0.240    136      0      0     73    216    216      0      0    0.0  0.000     79   0.00   0.00   1.00   0.00   0.00   0.00   0.00   1.00   5.10  400.0   0.00      0     79    279.7   0.00   0.00 0.5134   0.018   0.003   0.001   0.001   0.001   0.000   0.000   0.000   0.000   0.000      0      0      0       0       0   4.597  225.992
   17 070   139   138  21.478     1  0.252    141      0      0     81    225    225      0      0    0.0  0.000     83   0.00   0.00   1.00   0.00   0.00   0.00   0.00   1.00   5.05  400.0   0.00      0     83    279.5   0.00   0.00 0.5181   0.018   0.003   0.001   0.001   0.001   0.000   0.000   0.000   0.000   0.000      0      0      0       0       0   4.302  229.562
   17 071   140   139  21.665     1  0.270    147      0      0     93    238    238      0      0    0.0  0.000     90   0.00   0.00   1.00   0.00   0.00   0.00   0.00   1.00   5.05  400.0   0.00      0     90    279.3   0.00   0.00 0.5231   0.018   0.003   0.002   0.001   0.001   0.000   0.000   0.000   0.000   0.000      0      0      0       0       0   4.500  233.309
   17 072   141   140  21.899     1  0.294    156      0      0    109    254    254      0      0    0.0  0.000     98   0.00   0.00   1.00   0.00   0.00   0.00   0.00   1.00   5.04  400.0   0.00      0     98    279.1   0.00   0.00 0.5292   0.018   0.003   0.002   0.001   0.001   0.001   0.000   0.000   0.000   0.000      0      0      0       0       0   5.597  237.985
   17 073   142   141  22.155     1  0.321    166      0      0    118    274    274      0      0    0.0  0.000    108   0.00   0.00   1.00   0.00   0.00   0.00   0.00   1.00   5.00  400.0   0.00      0    108    278.9   0.00   0.00 0.5359   0.019   0.004   0.002   0.001   0.001   0.001   0.000   0.000   0.000   0.000      0      0      0       0       0   6.097  243.095
   17 074   143   142  22.407     1  0.350    176      0      0    126    295    295      0      0    0.0  0.000    118   0.00   0.00   1.00   0.00   0.00   0.00   0.00   1.00   4.96  400.0   0.00      0    118    278.7   0.00   0.00 0.5425   0.019   0.004   0.003   0.002   0.001   0.001   0.000   0.000   0.000   0.000      0      0      0       0       0   6.000  248.139
   17 075   144   143  22.723     1  0.398    193      0      0    141    329    329      0      0    0.0  0.000    136   0.00   0.00   1.00   0.00   0.00   0.00   0.00   1.00   4.91  400.0   0.00      0    136    278.4   0.00   0.00 0.5508   0.020   0.004   0.003   0.002   0.001   0.001   0.000   0.000   0.000   0.000      0      0      0       0       0   7.500  254.463
   17 076   145   144  23.125     1  0.454    213      0      0    157    370    370      0      0    0.0  0.000    156   0.00   0.00   1.00   0.00   0.00   0.00   0.00   1.00   4.83  400.0   0.00      0    156    278.1   0.00   0.00 0.5612   0.020   0.005   0.003   0.002   0.001   0.001   0.000   0.000   0.000   0.000      0      0      0       0       0   9.500  262.499
   17 077   146   145  23.422     1  0.473    220      0      0    162    383    383      0      0    0.0  0.000    163   0.00   0.00   1.00   0.00   0.00   0.00   0.00   1.00   4.83  400.0   0.00      0    163    277.8   0.00   0.00 0.5689   0.021   0.005   0.003   0.002   0.002   0.001   0.000   0.000   0.000   0.000      0      0      0       0       0   7.000  268.438
   17 078   147   146  23.869     1  0.509    233      0      0    171    409    409      0      0    0.0  0.000    176   0.00   0.00   1.00   0.00   0.00   0.00   0.00   1.00   4.76  400.0   0.00      0    176    277.5   0.00   0.00 0.5805   0.021   0.005   0.004   0.002   0.002   0.001   0.000   0.000   0.000   0.000      0      0      0       0       0  10.500  277.373
   17 079   148   147  24.274     1  0.561    252      0      0    185    446    446      0      0    0.0  0.000    194   0.00   0.00   1.00   0.00   0.00   0.00   0.00   1.00   4.74  400.0   0.00      0    194    277.2   0.00   0.00 0.5909   0.021   0.005   0.004   0.002   0.002   0.001   0.000   0.000   0.000   0.000      0      0      0       0       0   9.500  285.482
   17 080   149   148  24.681     1  0.613    270      0      0    200    484    484      0      0    0.0  0.000    213   0.00   0.00   1.00   0.00   0.00   0.00   0.00   1.00   4.70  400.0   0.00      0    213    276.9   0.00   0.00 0.6014   0.022   0.006   0.004   0.003   0.002   0.001   0.001   0.000   0.000   0.000      0      0      0       0       0   9.500  293.615
   17 081   150   149  24.917     1  0.635    278      0      0    204    500    500      0      0    0.0  0.000    221   0.00   0.00   1.00   0.00   0.00   0.00   0.00   1.00   4.70  400.0   0.00      0    221    276.7   0.00   0.00 0.6071   0.022   0.006   0.004   0.003   0.002   0.002   0.001   0.000   0.000   0.000      0      0      0       0       0   5.500  298.338
   17 082   151   150  25.261     1  0.693    300      0      0    220    542    542      0      0    0.0  0.000    242   0.00   0.00   1.00   0.00   0.00   0.00   0.00   1.00   4.67  400.0   0.00      0    242    276.5   0.00   0.00 0.6153   0.022   0.006   0.005   0.003   0.002   0.002   0.001   0.000   0.000   0.000      0      0      0       0       0   8.000  305.227
   17 083   152   151  25.520     1  0.727    312      0      0    229    566    566      0      0    0.0  0.000    254   0.00   0.00   1.00   0.00   0.00   0.00   0.00   1.00   4.64  400.0   0.00      0    254    276.4   0.00   0.00 0.6215   0.022   0.007   0.005   0.003   0.002   0.002   0.001   0.000   0.000   0.000      0      0      0       0       0   6.000  310.409
   17 084   153   152  25.845     1  0.781    331      0      0    266    606    606      0      0    0.0  0.000    274   0.00   0.00   1.00   0.00   0.00   0.00   0.00   1.00   4.54  400.0   0.00      0    274    276.2   0.00   0.00 0.6293   0.022   0.007   0.005   0.003   0.002   0.002   0.001   0.000   0.000   0.000      0      0      0       0       0   7.500  316.904
   17 085   154   153  26.084     1  0.813    343      0      0    286    629    629      0      0    0.0  0.000    286   0.00   0.00   1.00   0.00   0.00   0.00   0.00   1.00   4.55  400.0   0.00      0    286    276.0   0.00   0.00 0.6350   0.023   0.008   0.006   0.004   0.003   0.002   0.002   0.000   0.000   0.000      0      0      0       0       0   5.500  321.681
   17 086   155   154  26.411     1  0.868    363      0      0    323    669    669      0      0    0.0  0.000    306   0.00   0.00   1.00   0.00   0.00   0.00   0.00   1.00   4.45  400.0   0.00      0    306    275.8   0.00   0.00 0.6427   0.024   0.008   0.006   0.004   0.003   0.003   0.002   0.000   0.000   0.000      0      0      0       0       0   7.500  328.214
   17 087   156   155  26.830     1  0.947    391      0      0    377    726    726      0      0    0.0  0.000    334   0.00   0.00   1.00   0.00   0.00   0.00   0.00   1.00   4.27  400.0   0.00      0    334    275.6   0.00   0.00 0.6527   0.025   0.009   0.007   0.005   0.004   0.003   0.002   0.001   0.000   0.000      0      0      0       0       0   9.597  336.597
   17 088   157   156  27.333     1  1.046    428      0      0    434    798    798      0      0    0.0  0.000    370   0.00   0.00   1.00   0.06   0.00   0.00   0.00   1.00   4.04  400.0   0.00      0    370    275.3   0.00   0.00 0.6645   0.026   0.010   0.008   0.006   0.004   0.004   0.003   0.001   0.000   0.000      0      0      0       0       0  11.500  346.669
   17 089   158   157  27.773     1  1.126    456      0      0    488    856    856      0      0    0.0  0.000    399   0.00   0.00   1.00   0.15   0.00   0.00   0.00   1.00   3.92  400.0   0.00      0    399    275.1   0.00   0.00 0.6749   0.025   0.011   0.009   0.007   0.005   0.004   0.004   0.002   0.000   0.000      0      0      0       0       0  10.000  355.451
   17 090   159   158  28.367     1  1.230    494      0      0    559    932    932      0      0    0.0  0.000    437   0.00   0.00   1.00   0.19   0.00   0.00   0.00   1.00   3.74  400.0   0.00      0    437    274.8   0.00   0.00 0.6888   0.025   0.012   0.010   0.008   0.006   0.005   0.005   0.003   0.000   0.000      0      0      0       0       0  13.500  367.339
   17 091   160   159  28.919     1  1.320    527      0      0    619    998    998      0      0    0.0  0.000    470   0.00   0.00   1.00   0.26   0.00   0.00   0.00   1.00   3.62  400.0   0.00      0    470    274.5   0.00   0.00 0.7018   0.025   0.013   0.011   0.009   0.007   0.006   0.006   0.005   0.000   0.000      0      0      0       0       0  12.500  378.376
   17 092   161   160  29.472     1  1.407    559      0      0    676   1061   1061      0      0    0.0  0.000    502   0.00   0.00   1.00   0.29   0.00   0.00   0.00   1.00   3.52  400.0   0.00      0    502    274.3   0.00   0.00 0.7130   0.025   0.014   0.012   0.010   0.008   0.007   0.007   0.006   0.000   0.000      0      0      0       0       0  12.500  389.441
   17 093   162   161  29.960     1  1.481    586      0      0    723   1115   1115      0      0    0.0  0.000    529   0.00   0.00   1.00   0.33   0.00   0.00   0.00   1.00   3.45  400.0   0.00      0    529    274.1   0.00   0.00 0.7230   0.028   0.015   0.013   0.010   0.008   0.007   0.007   0.007   0.000   0.000      0      0      0       0       0  11.000  399.204
   17 094   163   162  30.212     2  1.574    620     13      0    741   1195   1195      0      0    0.0  0.000    562   0.00   0.00   1.00   0.35   0.00   0.00   0.00   1.00   3.35  476.4   0.00      0    562    274.1   0.00   0.00 0.7297   0.030   0.015   0.014   0.011   0.009   0.008   0.008   0.008   0.000   0.000      0      0      0       0       0   7.500    5.878
   17 095   164   163  30.501     2  1.672    655     27      0    760   1281   1281      0      0    0.0  0.000    598   0.00   0.00   1.00   0.40   0.00   0.00   0.00   1.00   3.24  512.4   0.00      0    598    274.1   0.00   0.00 0.7369   0.031   0.015   0.014   0.011   0.009   0.008   0.008   0.008   0.001   0.000      0      0      0       0       0   8.000   13.878
   17 096   165   164  30.664     2  1.730    677     36      0    769   1332   1332      0      0    0.0  0.000    619   0.00   0.00   1.00   0.46   0.00   0.00   0.00   1.00   3.20  528.0   0.00      0    619    274.1   0.00   0.00 0.7410   0.031   0.016   0.014   0.011   0.009   0.008   0.008   0.008   0.001   0.000      0      0      0       0       0   4.500   18.378
   17 097   166   165  30.989     2  1.839    717     54      0    794   1430   1430      0      0    0.0  0.000    659   0.00   0.00   1.00   0.47   0.00   0.00   0.00   1.00   3.07  546.8   0.00      0    659    274.1   0.00   0.00 0.7491   0.031   0.016   0.014   0.011   0.009   0.008   0.008   0.008   0.001   0.000      0      0      0       0       0   9.000   27.378
   17 098   167   166  31.368     2  1.952    758     75      0    821   1533   1533      0      0    0.0  0.000    700   0.00   0.00   1.00   0.53   0.00   0.00   0.00   1.00   2.95  559.5   0.00      0    700    274.1   0.00   0.00 0.7586   0.031   0.016   0.015   0.012   0.010   0.008   0.008   0.008   0.001   0.000      0      0      0       0       0  10.500   37.878
   17 099   168   167  31.801     2  2.066    799     97      0    849   1638   1638      0      0    0.0  0.000    742   0.00   0.00   1.00   0.58   0.00   0.00   0.00   1.00   2.84  567.2   0.00      0    742    274.1   0.00   0.00 0.7694   0.030   0.017   0.015   0.012   0.010   0.009   0.009   0.009   0.001   0.000      0      0      0       0       0  12.000   49.878
   17 100   169   168  32.307     2  2.161    834    118      0    873   1728   1728      0      0    0.0  0.000    777   0.00   0.00   1.00   0.63   0.00   0.00   0.00   1.00   2.76  569.4   0.00      0    777    274.1   0.00   0.00 0.7820   0.030   0.017   0.016   0.013   0.010   0.009   0.009   0.009   0.002   0.000      0      0      0       0       0  14.000   63.878
   17 101   170   169  32.541     2  2.224    857    132      0    886   1789   1789      0      0    0.0  0.000    800   0.00   0.00   1.00   0.68   0.00   0.00   0.00   1.00   2.72  570.1   0.00      0    800    274.1   0.00   0.00 0.7879   0.030   0.018   0.016   0.013   0.011   0.009   0.009   0.009   0.002   0.000      0      0      0       0       0   6.500   70.378
   17 102   171   170  32.866     2  2.295    883    149      0    903   1858   1858      0      0    0.0  0.000    826   0.00   0.00   1.00   0.69   0.00   0.00   0.00   1.00   2.67  570.2   0.00      0    826    274.1   0.00   0.00 0.7960   0.029   0.018   0.016   0.013   0.011   0.010   0.009   0.009   0.002   0.000      0      0      0       0       0   9.000   79.378
   17 103   172   171  33.228     2  2.342    900    161      0    911   1904   1904      0      0    0.0  0.000    843   0.00   0.00   1.00   0.71   0.00   0.00   0.00   1.00   2.64  568.6   0.00      0    843    274.1   0.00   0.00 0.8050   0.029   0.018   0.016   0.013   0.011   0.010   0.010   0.009   0.002   0.000      0      0      0       0       0  10.000   89.378
   17 104   173   172  33.534     2  2.386    916    173      0    918   1948   1948      0      0    0.0  0.000    859   0.00   0.00   1.00   0.72   0.00   0.00   0.00   1.00   2.62  566.3   0.00      0    859    274.1   0.00   0.00 0.8127   0.029   0.018   0.017   0.013   0.011   0.010   0.010   0.009   0.002   0.000      0      0      0       0       0   8.500   97.878
   17 105   174   173  33.914     2  2.432    934    187      0    927   1998   1998      0      0    0.0  0.000    876   0.00   0.00   1.00   0.72   0.00   0.00   0.00   1.00   2.60  562.1   0.00      0    876    274.1   0.00   0.00 0.8222   0.028   0.018   0.017   0.014   0.011   0.010   0.010   0.010   0.003   0.000      0      0      0       0       0  10.500  108.378
   17 106   175   174  34.148     2  2.460    945    197      0    930   2029   2029      0      0    0.0  0.000    888   0.00   0.00   1.00   0.73   0.00   0.00   0.00   1.00   2.59  559.2   0.00      0    888    274.1   0.00   0.00 0.8280   0.028   0.019   0.017   0.014   0.011   0.010   0.010   0.010   0.003   0.000      0      0      0       0       0   6.500  114.878
   17 107   176   175  34.329     2  2.481    953    204      0    929   2052   2052      0      0    0.0  0.000    896   0.00   0.00   1.00   0.73   0.00   0.00   0.00   1.00   2.63  556.8   0.00      0    896    274.1   0.00   0.00 0.8326   0.028   0.019   0.017   0.014   0.011   0.010   0.010   0.010   0.003   0.000      0      0      0       0       0   5.000  119.878
   17 108   177   176  34.437     2  2.507    963    212      0    930   2081   2081      0      0    0.0  0.000    906   0.00   0.00   1.00   0.69   0.00   0.00   0.00   1.00   2.63  555.4   0.00      0    906    274.1   0.00   0.00 0.8353   0.028   0.018   0.017   0.014   0.011   0.010   0.010   0.010   0.003   0.000      0      0      0       0       0   3.000  122.878
   17 109   178   177  34.509     2  2.531    972    220      0    931   2107   2107      0      0    0.0  0.000    915   0.00   0.00   1.00   0.69   0.00   0.00   0.00   1.00   2.63  554.5   0.00      0    915    274.1   0.00   0.00 0.8371   0.028   0.018   0.017   0.014   0.011   0.010   0.010   0.010   0.003   0.000      0      0      0       0       0   2.000  124.878
   17 110   179   178  34.625     2  2.567    985    232      0    935   2144   2144      0      0    0.0  0.000    928   0.00   0.00   1.00   0.68   0.00   0.00   0.00   1.00   2.62  553.0   0.00      0    928    274.1   0.00   0.00 0.8400   0.028   0.018   0.017   0.014   0.011   0.010   0.010   0.010   0.003   0.000      0      0      0       0       0   3.195  128.073
   17 111   180   179  34.816     2  2.624   1006    252      0    949   2206   2206      0      0    0.0  0.000    949   0.00   0.00   1.00   0.68   0.00   0.00   0.00   1.00   2.59  550.7   0.00      0    949    274.1   0.00   0.00 0.8447   0.028   0.018   0.017   0.014   0.011   0.010   0.010   0.010   0.003   0.000      0      0      0       0       0   5.300  133.373
   17 112   181   180  35.051     2  2.656   1018    263      0    952   2242   2242      0      0    0.0  0.000    961   0.00   0.00   1.00   0.70   0.00   0.00   0.00   1.00   2.57  547.5   0.00      0    961    274.1   0.00   0.00 0.8506   0.028   0.019   0.017   0.014   0.012   0.010   0.010   0.010   0.003   0.000      0      0      0       0       0   6.500  139.873
   17 113   182   181  35.202     2  2.691   1031    276      0    957   2281   2281      0      0    0.0  0.000    974   0.00   0.00   1.00   0.70   0.00   0.00   0.00   1.00   2.56  545.5   0.00      0    974    274.1   0.00   0.00 0.8544   0.028   0.019   0.017   0.014   0.012   0.010   0.010   0.010   0.003   0.000      0      0      0       0       0   4.195  144.068
   17 114   183   182  35.466     2  2.762   1057    303      0    977   2360   2360      0      0    0.0  0.000   1000   0.00   0.00   1.00   0.71   0.00   0.00   0.00   1.00   2.51  542.0   0.00      0   1000    274.1   0.00   0.00 0.8610   0.028   0.019   0.017   0.014   0.012   0.010   0.010   0.010   0.003   0.000      0      0      0       0       0   7.298  151.366
   17 115   184   183  35.719     2  2.793   1069    315      0    980   2395   2395      0      0    0.0  0.000   1011   0.00   0.00   1.00   0.73   0.00   0.00   0.00   1.00   2.49  538.5   0.00      0   1011    274.1   0.00   0.00 0.8673   0.029   0.019   0.017   0.014   0.012   0.011   0.010   0.010   0.003   0.000      0      0      0       0       0   7.000  158.366
   17 116   185   184  35.809     2  2.805   1074    320      0    976   2410   2410      0      0    0.0  0.000   1016   0.00   0.00   1.00   0.74   0.00   0.00   0.00   1.00   2.49  537.2   0.00      0   1016    274.1   0.00   0.00 0.8695   0.029   0.019   0.017   0.014   0.012   0.011   0.010   0.010   0.004   0.000      0      0      0       0       0   2.500  160.866
   17 117   186   185  35.881     2  2.818   1078    326      0    972   2425   2425      0      0    0.0  0.000   1021   0.00   0.00   1.00   0.74   0.00   0.00   0.00   1.00   2.49  536.2   0.00      0   1021    274.1   0.00   0.00 0.8713   0.028   0.019   0.017   0.014   0.012   0.011   0.010   0.010   0.004   0.000      0      0      0       0       0   2.000  162.866
   17 118   187   186  35.972     2  2.834   1084    332      0    969   2444   2444      0      0    0.0  0.000   1027   0.00   0.00   1.00   0.74   0.00   0.00   0.00   1.00   2.49  534.9   0.00      0   1027    274.1   0.00   0.00 0.8736   0.028   0.019   0.017   0.014   0.012   0.011   0.010   0.010   0.004   0.000      0      0      0       0       0   2.500  165.366
   17 119   188   187  36.206     2  2.881   1102    352      0    980   2498   2498      0      0    0.0  0.000   1044   0.00   0.00   1.00   0.73   0.00   0.00   0.00   1.00   2.46  531.5   0.00      0   1044    274.1   0.00   0.00 0.8795   0.028   0.019   0.017   0.014   0.012   0.011   0.010   0.010   0.004   0.000      0      0      0       0       0   6.500  171.866
   17 120   189   188  36.477     2  2.943   1124    379      0    998   2571   2571      0      0    0.0  0.000   1067   0.00   0.00   1.00   0.74   0.00   0.00   0.00   1.00   2.42  527.7   0.00      0   1067    274.1   0.00   0.00 0.8862   0.028   0.019   0.017   0.014   0.012   0.011   0.010   0.010   0.004   0.000      0      0      0       0       0   7.500  179.366
   17 121   190   189  36.766     2  2.975   1136    394      0   1003   2609   2609      0      0    0.0  0.000   1079   0.00   0.00   1.00   0.77   0.00   0.00   0.00   1.00   2.40  523.4   0.00      0   1079    274.1   0.00   0.00 0.8934   0.028   0.019   0.017   0.014   0.012   0.011   0.010   0.010   0.004   0.000      0      0      0       0       0   8.000  187.366
   17 122   191   190  37.091     2  3.013   1150    413      0   1011   2656   2656      0      0    0.0  0.000   1093   0.00   0.00   1.00   0.77   0.00   0.00   0.00   1.00   2.37  518.4   0.00      0   1093    274.1   0.00   0.00 0.9016   0.028   0.019   0.018   0.014   0.012   0.011   0.010   0.010   0.004   0.000      0      0      0       0       0   9.000  196.366
   17 123   192   191  37.452     2  3.047   1163    430      0   1017   2700   2700      0      0    0.0  0.000   1106   0.00   0.00   1.00   0.78   0.00   0.00   0.00   1.00   2.35  512.5   0.00      0   1106    274.1   0.00   0.00 0.9105   0.028   0.019   0.018   0.015   0.012   0.011   0.010   0.010   0.004   0.000      0      0      0       0       0  10.000  206.366
   17 124   193   192  37.777     2  3.080   1176    448      0   1023   2742   2742      0      0    0.0  0.000   1118   0.00   0.00   1.00   0.79   0.00   0.00   0.00   1.00   2.33  507.1   0.00      0   1118    274.1   0.00   0.00 0.9186   0.029   0.019   0.018   0.015   0.012   0.011   0.010   0.010   0.004   0.000      0      0      0       0       0   9.000  215.366
   17 125   194   193  38.174     2  3.106   1188    467      0   1030   2786   2786      0      0    0.0  0.000   1131   0.00   0.00   1.00   0.79   0.00   0.00   0.00   1.00   2.31  500.1   0.00      0   1131    274.1   0.00   0.00 0.9285   0.029   0.020   0.018   0.015   0.012   0.011   0.011   0.010   0.004   0.000      0      0      0       0       0  11.000  226.366
   17 126   195   194  38.626     2  3.144   1205    495      0   1044   2848   2848      0      0    0.0  0.000   1148   0.00   0.00   1.00   0.80   0.00   0.00   0.00   1.00   2.28  492.1   0.00      0   1148    274.1   0.00   0.00 0.9398   0.029   0.020   0.018   0.015   0.013   0.011   0.011   0.010   0.004   0.000      0      0      0       0       0  12.500  238.866
   17 127   196   195  39.023     2  3.154   1212    508      0   1044   2875   2875      0      0    0.0  0.000   1155   0.00   0.00   1.00   0.81   0.00   0.00   0.00   1.00   2.27  484.7   0.00      0   1155    274.1   0.00   0.00 0.9497   0.029   0.020   0.018   0.015   0.013   0.011   0.011   0.010   0.004   0.000      0      0      0       0       0  11.000  249.866
   17 128   197   196  39.330     2  3.163   1218    517      0   1042   2896   2896      0      0    0.0  0.000   1161   0.00   0.00   1.00   0.81   0.00   0.00   0.00   1.00   2.26  478.8   0.00      0   1161    274.1   0.00   0.00 0.9573   0.029   0.020   0.018   0.015   0.013   0.011   0.011   0.010   0.004   0.000      0      0      0       0       0   8.500  258.366
   17 129   198   197  39.583     2  3.184   1227    535      0   1046   2933   2933      0      0    0.0  0.000   1170   0.00   0.00   1.00   0.81   0.00   0.00   0.00   1.00   2.25  474.0   0.00      0   1170    274.1   0.00   0.00 0.9636   0.028   0.020   0.018   0.015   0.013   0.011   0.011   0.010   0.004   0.000      0      0      0       0       0   7.000  265.366
   17 130   199   198  39.872     2  3.222   1243    565      0   1059   2993   2993      0      0    0.0  0.000   1186   0.00   0.00   1.00   0.81   0.00   0.00   0.00   1.00   2.22  468.7   0.00      0   1186    274.1   0.00   0.00 0.9708   0.028   0.020   0.018   0.015   0.013   0.011   0.011   0.010   0.004   0.000      0      0      0       0       0   8.000  273.366
   17 131   200   199  40.305     2  3.254   1255    591      0   1069   3045   3045      0      0    0.0  0.000   1198   0.00   0.00   1.00   0.82   0.00   0.00   0.00   1.00   2.21  460.7   0.00      0   1198    274.1   0.00   0.00 0.9816   0.029   0.020   0.018   0.015   0.013   0.011   0.011   0.010   0.005   0.000      0      0      0       0       0  12.000  285.366
   17 132   201   200  40.883     2  3.282   1267    618      0   1078   3095   3095      0      0    0.0  0.000   1210   0.00   0.00   1.00   0.82   0.00   0.00   0.00   1.00   2.19  449.7   0.00      0   1210    274.1   0.00   0.00 0.9960   0.029   0.020   0.018   0.015   0.013   0.012   0.011   0.010   0.005   0.000      0      0      0       0       0  16.000  301.366
   17 133   202   201  41.424     2  3.307   1279    644      0   1087   3144   3144      0      0    0.0  0.000   1221   0.00   0.00   1.00   0.82   0.00   0.00   0.00   1.00   2.17  439.2   0.00      0   1221    274.1   0.00   0.00 1.0095   0.029   0.020   0.018   0.015   0.013   0.012   0.011   0.011   0.005   0.001      0      0      0       0       0  15.000  316.366
   17 134   203   202  41.948     2  3.331   1289    670      0   1094   3191   3191      0      0    0.0  0.000   1232   0.00   0.00   1.00   0.82   0.00   0.00   0.00   1.00   2.16  429.0   0.00      0   1232    274.1   0.00   0.00 1.0226   0.029   0.020   0.018   0.015   0.013   0.012   0.011   0.011   0.005   0.001      0      0      0       0       0  14.500  330.866
   17 135   204   203  42.417     2  3.273   1299    698      0   1101   3237   3237      0      0    0.0  0.000   1241   0.00   0.00   1.00   0.82   0.00   0.00   0.00   1.00   2.14  419.8   0.00      0   1241    274.1   0.00   0.00 1.0343   0.029   0.020   0.018   0.015   0.013   0.012   0.011   0.011   0.005   0.001      0      0      0       0       0  13.000  343.866
   17 136   205   204  42.905     2  3.242   1310    732      0   1113   3295   3295      0      0    0.0  0.000   1253   0.00   0.00   1.00   0.82   0.00   0.00   0.00   1.00   2.13  410.4   0.00      0   1253    274.1   0.00   0.00 1.0464   0.029   0.020   0.019   0.015   0.013   0.012   0.011   0.011   0.005   0.001      0      0      0       0       0  13.500  357.366
   17 137   206   205  43.824     3  3.153   1310    798      0   1121   3361   3361      0      0    0.0  0.000   1253   0.00   0.00   1.00   0.81   0.00   0.00   0.00   1.00   2.13  400.9   0.00      0   1253    274.1   0.00   0.00 1.0599   0.029   0.020   0.019   0.016   0.013   0.012   0.011   0.011   0.005   0.001      0      0      0       0       0  15.000   12.366
   17 138   207   206  44.989     3  3.114   1310    860      0   1129   3423   3423      0      0    0.0  0.000   1253   0.00   0.00   1.00   0.79   0.00   0.00   0.00   1.00   2.13  400.0   0.00      0   1253    274.1   0.00   0.00 1.0756   0.029   0.021   0.019   0.016   0.013   0.012   0.011   0.011   0.005   0.001      0      0      0       0       0  17.474   29.840
   17 139   208   207  46.023     3  3.079   1310    914      0   1133   3477   3477      0      0    0.0  0.000   1253   0.00   0.00   1.00   0.77   0.00   0.00   0.00   1.00   2.13  400.0   0.00      0   1253    274.1   0.00   0.00 1.0896   0.029   0.021   0.019   0.016   0.013   0.012   0.011   0.011   0.005   0.001      0      0      0       0       0  15.500   45.340
   17 140   209   208  46.723     3  3.055   1310    984      0   1143   3548   3548      0      0    0.0  0.000   1253   0.00   0.00   1.00   0.76   0.00   0.00   0.00   1.00   2.13  400.0   0.00      0   1253    274.1   0.00   0.00 1.0990   0.029   0.021   0.019   0.016   0.013   0.012   0.011   0.011   0.005   0.001      0      0      0       0       0  10.500   55.840
[...]
   17 167   236   235  71.465     5  0.837    560   2108    567    672   3170   3737   6108   6108    9.3  0.152    502   0.00   0.00   1.00   0.00   0.00   0.00   0.00   1.00   1.29  400.0   0.00      0    502    274.1   0.00   0.00 1.4269   0.014   0.009   0.009   0.008   0.007   0.006   0.006   0.005   0.004   0.003      0      0      0       0       0  17.000   51.270
   17 168   237   236  71.893     5  0.834    560   2086    675    677   3148   3823   6108   6108   11.1  0.177    502   0.00   0.00   1.00   0.00   0.00   0.00   0.00   1.00   1.07  400.0   0.00      0    502    274.1   0.00   0.00 1.4376   0.014   0.010   0.009   0.008   0.007   0.006   0.006   0.005   0.004   0.003      0      0      0       0       0  15.000   66.270
   17 169   238   237  72.308     5  0.831    560   2108    749    684   3170   3919   6108   6108   12.3  0.191    502   0.00   0.00   1.00   0.00   0.00   0.00   0.00   1.00   0.92  400.0   0.00      0    502    274.1   0.00   0.00 1.4480   0.014   0.010   0.009   0.008   0.007   0.006   0.006   0.005   0.004   0.003      0      0      0       0       0  14.500   80.770
   17 170   239   238  72.847     5  0.827    560   2144    803    690   3206   4009   6108   6108   13.2  0.200    502   0.00   0.00   1.00   0.00   0.00   0.00   0.00   1.00   0.82  400.0   0.00      0    502    274.1   0.00   0.00 1.4615   0.014   0.010   0.009   0.008   0.007   0.006   0.006   0.005   0.004   0.003      0      0      0       0       0  18.889   99.659
   17 171   240   239  73.435     5  0.820    560   2171    849    694   3233   4081   6108   6108   13.9  0.208    502   0.00   0.00   1.00   0.00   0.00   0.00   0.00   1.00   0.75  400.0   0.00      0    502    274.1   0.00   0.00 1.4762   0.014   0.010   0.009   0.008   0.007   0.006   0.006   0.005   0.004   0.003      0      0      0       0       0  20.556  120.214
   17 172   241   240  74.049     5  0.812    560   2192    890    697   3254   4144   6108   6108   14.6  0.215    502   0.00   0.00   1.00   0.00   0.00   0.00   0.00   1.00   0.70  400.0   0.00      0    502    274.1   0.00   0.00 1.4916   0.014   0.010   0.009   0.008   0.007   0.006   0.006   0.005   0.004   0.003      0      0      0       0       0  21.500  141.714
   17 173   242   241  74.671     5  0.801    560   2207    938    700   3269   4207   6108   6108   15.4  0.223    502   0.00   0.00   1.00   0.00   0.00   0.00   0.00   1.00   0.66  400.0   0.00      0    502    274.1   0.00   0.00 1.5071   0.014   0.010   0.009   0.008   0.007   0.006   0.006   0.005   0.004   0.003      0      0      0       0       0  21.765  163.479
   17 174   243   242  75.290     5  0.789    560   2212    993    702   3274   4268   6108   6108   16.3  0.233    502   0.00   0.00   1.00   0.00   0.00   0.00   0.00   1.00   0.63  400.0   0.00      0    502    274.1   0.00   0.00 1.5195   0.014   0.010   0.009   0.008   0.007   0.006   0.006   0.005   0.004   0.003      0      0      0       0       0  21.679  185.158
   17 175   244   243  75.862     5  0.775    560   2218   1054    705   3280   4334   6108   6108   17.3  0.243    502   0.00   0.00   1.00   0.00   0.00   0.00   0.00   1.00   0.61  400.0   0.00      0    502    274.1   0.00   0.00 1.5309   0.014   0.010   0.009   0.008   0.007   0.006   0.006   0.005   0.004   0.003      0      0      0       0       0  20.000  205.158
   17 176   245   244  76.347     5  0.761    560   2206   1115    706   3268   4384   6108   6108   18.3  0.254    502   0.00   0.00   1.00   0.00   0.00   0.00   0.00   1.00   0.59  400.0   0.00      0    502    274.1   0.00   0.00 1.5406   0.014   0.010   0.009   0.008   0.007   0.006   0.006   0.005   0.004   0.003      0      0      0       0       0  17.000  222.158
   17 177   246   245  76.939     5  0.748    560   2201   1184    709   3263   4447   6108   6108   19.4  0.266    502   0.00   0.00   1.00   0.00   0.00   0.00   0.00   1.00   0.57  400.0   0.00      0    502    274.1   0.00   0.00 1.5524   0.014   0.010   0.009   0.008   0.007   0.006   0.006   0.005   0.004   0.003      0      0      0       0       0  20.719  242.876
   17 178   247   246  77.539     5  0.731    560   2179   1257    710   3241   4498   6108   6108   20.6  0.279    502   0.00   0.00   1.00   0.00   0.00   0.00   0.00   1.00   0.55  400.0   0.00      0    502    274.1   0.00   0.00 1.5643   0.014   0.010   0.009   0.008   0.007   0.006   0.006   0.005   0.004   0.003      0      0      0       0       0  21.000  263.876
   17 179   248   247  78.111     5  0.712    560   2151   1336    711   3213   4549   6108   6108   21.9  0.294    502   0.00   0.00   1.00   0.00   0.00   0.00   0.00   1.00   0.54  400.0   0.00      0    502    274.1   0.00   0.00 1.5757   0.014   0.010   0.009   0.008   0.007   0.006   0.006   0.005   0.004   0.003      0      0      0       0       0  20.000  283.876
   17 180   249   248  78.611     5  0.693    560   2114   1419    711   3176   4595   6108   6108   23.2  0.309    502   0.00   0.00   1.00   0.00   0.00   0.00   0.00   1.00   0.52  400.0   0.00      0    502    274.1   0.00   0.00 1.5857   0.014   0.010   0.009   0.008   0.007   0.006   0.006   0.005   0.004   0.003      0      0      0       0       0  17.500  301.376
   17 181   250   249  79.111     5  0.675    560   2081   1508    712   3143   4651   6108   6108   24.7  0.324    502   0.00   0.00   1.00   0.00   0.00   0.00   0.00   1.00   0.51  400.0   0.00      0    502    274.1   0.00   0.00 1.5957   0.014   0.010   0.009   0.008   0.007   0.006   0.006   0.005   0.004   0.003      0      0      0       0       0  17.500  318.876
   17 182   251   250  79.582     5  0.656    560   2033   1602    711   3095   4698   6108   6108   26.2  0.341    502   0.00   0.00   1.00   0.00   0.00   0.00   0.00   1.00   0.50  400.0   0.00      0    502    274.1   0.00   0.00 1.6051   0.014   0.010   0.009   0.008   0.007   0.006   0.006   0.005   0.004   0.003      0      0      0       0       0  16.500  335.376
   17 183   252   251  80.039     5  0.637    560   1969   1700    709   3031   4732   6108   6108   27.8  0.359    502   0.00   0.00   1.00   0.00   0.00   0.00   0.00   1.00   0.49  400.0   0.00      0    502    274.1   0.00   0.00 1.6142   0.014   0.010   0.009   0.008   0.007   0.006   0.006   0.005   0.004   0.003      0      0      0       0       0  16.000  351.376
   17 184   253   252  80.525     5  0.617    560   1913   1801    707   2975   4777   6108   6108   29.5  0.377    502   0.00   0.00   1.00   0.00   0.00   0.00   0.00   1.00   0.48  400.0   0.00      0    502    274.1   0.00   0.00 1.6239   0.014   0.009   0.009   0.008   0.007   0.006   0.006   0.005   0.004   0.003      0      0      0       0       0  17.000  368.376
   17 185   254   253  81.039     5  0.596    560   1859   1903    705   2921   4824   6108   6108   31.2  0.394    502   0.00   0.00   1.00   0.00   0.00   0.00   0.00   1.00   0.47  400.0   0.00      0    502    274.1   0.00   0.00 1.6341   0.014   0.009   0.009   0.008   0.007   0.006   0.006   0.005   0.004   0.003      0      0      0       0       0  18.000  386.376
   17 186   255   254  81.590     5  0.572    560   1807   2003    703   2869   4871   6108   6108   32.8  0.411    502   0.00   0.00   1.00   0.00   0.00   0.00   0.00   1.00   0.45  400.0   0.00      0    502    274.1   0.00   0.00 1.6451   0.013   0.009   0.009   0.007   0.007   0.006   0.006   0.005   0.004   0.003      0      0      0       0       0  19.263  405.640
   17 187   256   255  82.185     5  0.545    560   1749   2102    700   2811   4913   6108   6108   34.4  0.428    502   0.00   0.00   1.00   0.00   0.00   0.00   0.00   1.00   0.44  400.0   0.00      0    502    274.1   0.00   0.00 1.6570   0.013   0.009   0.008   0.007   0.007   0.006   0.006   0.005   0.004   0.003      0      0      0       0       0  20.842  426.482
   17 188   257   256  82.805     5  0.515    560   1683   2200    696   2745   4945   6108   6108   36.0  0.445    502   0.00   0.00   1.00   0.00   0.00   0.00   0.00   1.00   0.43  400.0   0.00      0    502    274.1   0.00   0.00 1.6693   0.013   0.009   0.008   0.007   0.007   0.006   0.006   0.005   0.004   0.003      0      0      0       0       0  21.679  448.160
   17 189   258   257  83.445     5  0.482    560   1616   2299    692   2678   4977   6108   6108   37.6  0.462    502   0.00   0.00   1.00   0.00   0.00   0.00   0.00   1.00   0.41  400.0   0.00      0    502    274.1   0.00   0.00 1.6821   0.013   0.009   0.008   0.007   0.007   0.006   0.005   0.005   0.004   0.003      0      0      0       0       0  22.429  470.589
   17 190   259   258  84.058     5  0.445    560   1548   2397    687   2610   5006   6108   6108   39.2  0.479    502   0.00   0.00   1.00   0.00   0.00   0.00   0.00   1.00   0.40  400.0   0.00      0    502    274.1   0.00   0.00 1.6944   0.013   0.009   0.008   0.007   0.007   0.006   0.005   0.005   0.004   0.003      0      0      0       0       0  21.455  492.043
   17 191   260   259  84.644     5  0.409    560   1480   2493    681   2542   5035   6108   6108   40.8  0.495    502   0.00   0.00   1.00   0.00   0.00   0.00   0.00   1.00   0.39  400.0   0.00      0    502    274.1   0.00   0.00 1.7060   0.013   0.009   0.008   0.007   0.007   0.006   0.005   0.005   0.004   0.003      0      0      0       0       0  20.500  512.543
   17 192   261   260  85.173     5  0.373    560   1417   2588    675   2479   5066   6108   6108   42.4  0.511    502   0.00   0.00   1.00   0.00   0.00   0.00   0.00   1.00   0.38  400.0   0.00      0    502    274.1   0.00   0.00 1.7147   0.013   0.009   0.008   0.007   0.007   0.006   0.005   0.005   0.004   0.003      0      0      0       0       0  18.500  531.043
   17 193   262   261  85.716     5  0.340    560   1349   2682    669   2411   5093   6108   6108   43.9  0.527    502   0.00   0.00   1.00   0.00   0.00   0.00   0.00   1.00   0.37  400.0   0.00      0    502    274.1   0.00   0.00 1.7236   0.013   0.009   0.008   0.007   0.007   0.006   0.005   0.005   0.004   0.003      0      0      0       0       0  19.000  550.043
   17 194   263   262  86.144     5  0.304    560   1349   2719    662   2411   5130   6108   6108   44.5  0.530    502   0.00   0.00   1.00   0.00   0.00   0.00   0.00   1.00   0.36  400.0   0.00      0    502    274.1   0.00   0.00 1.7306   0.013   0.009   0.008   0.007   0.006   0.006   0.005   0.005   0.004   0.003      0      0      0       0       0  15.000  565.043
   17 195   264   263  86.558     5  0.275    560   1349   2743    656   2411   5154   6108   6108   44.9  0.532    502   0.00   0.00   1.00   0.00   0.00   0.00   0.00   1.00   0.35  400.0   0.00      0    502    274.1   0.00   0.00 1.7374   0.013   0.009   0.008   0.007   0.006   0.006   0.005   0.005   0.004   0.003      0      0      0       0       0  14.500  579.543
   17 196   265   264  86.987     5  0.246    560   1349   2766    649   2411   5176   6108   6108   45.3  0.534    502   0.00   0.00   1.00   0.00   0.00   0.00   0.00   1.00   0.34  400.0   0.00      0    502    274.1   0.00   0.00 1.7445   0.012   0.009   0.008   0.007   0.006   0.006   0.005   0.005   0.004   0.003      0      0      0       0       0  15.000  594.543
   17 197   266   265  87.430     5  0.215    560   1349   2790    643   2411   5201   6108   6108   45.7  0.536    502   0.00   0.00   1.00   0.00   0.00   0.00   0.00   1.00   0.34  400.0   0.00      0    502    274.1   0.00   0.00 1.7517   0.012   0.009   0.008   0.007   0.006   0.006   0.005   0.005   0.004   0.003      0      0      0       0       0  15.500  610.043
   17 198   267   266  87.944     5  0.183    560   1349   2808    636   2411   5219   6108   6108   46.0  0.538    502   0.00   0.00   1.00   0.00   0.00   0.00   0.00   1.00   0.33  400.0   0.00      0    502    274.1   0.00   0.00 1.7602   0.012   0.008   0.008   0.007   0.006   0.006   0.005   0.005   0.004   0.003      0      0      0       0       0  18.000  628.043
   17 199   268   267  88.508     5  0.144    560   1349   2823    630   2411   5234   6108   6108   46.2  0.539    502   0.00   0.00   1.00   0.00   0.00   0.00   0.00   1.00   0.32  400.0   0.00      0    502    274.1   0.00   0.00 1.7694   0.012   0.008   0.008   0.007   0.006   0.006   0.005   0.005   0.004   0.003      0      0      0       0       0  19.750  647.793
   17 200   269   268  89.150     5  0.100    560   1349   2831    624   2411   5242   6108   6108   46.4  0.540    502   0.00   0.00   1.44   0.00   0.00   0.00   0.00   1.00   0.32  400.0   0.00      0    502    274.1   0.00   0.00 1.7799   0.012   0.008   0.008   0.007   0.006   0.005   0.005   0.005   0.004   0.003      0      0      0       0       0  22.441  670.235
   17 201   270   269  89.734     5  0.026    560   1349   2833    617   2411   5244   6108   6108   46.4  0.540    502   0.00   0.00   1.00   0.00   0.00   0.00   0.00   1.00   0.32  400.0   0.00      0    502    274.1   0.00   0.00 1.7895   0.012   0.008   0.007   0.007   0.006   0.005   0.005   0.005   0.004   0.003      0      0      0       0       0  20.462  690.696
   17 202   271   270  90.000     6  0.000    560   1349   2833    611   2411   5244   6108   6108   46.4  0.540    502   0.00   0.00   1.00   0.00   0.00   0.00   0.00   1.00   0.32  400.0   0.00      0    502    274.1   0.00   0.00 1.7895   0.012   0.008   0.007   0.006   0.006   0.005   0.005   0.005   0.004   0.003      0      0      0       0       0  20.367   11.063
   17 203   272   271  90.000     7  0.000    560   1349   2833    611   2411   5244   6108   6108   46.4  0.540    502   0.00   0.00   1.00   0.00   0.00   0.00   0.00   1.00   0.32  400.0   0.00      0    502    274.1   0.00   0.00 1.7895   0.012   0.008   0.007   0.006   0.006   0.005   0.005   0.005   0.004   0.003      0      0      0       0       0  21.346   12.000
   17 204   273   272  90.000     7  0.000    560   1349   2833    611   2411   5244   6108   6108   46.4  0.540    502   0.00   0.00   1.00   0.00   0.00   0.00   0.00   1.00   0.32  400.0   0.00      0    502    274.1   0.00   0.00 1.7895   0.012   0.008   0.007   0.006   0.006   0.005   0.005   0.005   0.004   0.003      0      0      0       0       0  21.346   12.000
   17 205   274   273  90.000     7  0.000    560   1349   2833    611   2411   5244   6108   6108   46.4  0.540    502   0.00   0.00   1.00   0.00   0.00   0.00   0.00   1.00   0.32  400.0   0.00      0    502    274.1   0.00   0.00 1.7895   0.012   0.008   0.007   0.006   0.006   0.005   0.005   0.005   0.004   0.003      0      0      0       0       0  21.346   12.000
   17 206   275   274  90.000     7  0.000    560   1349   2833    611   2411   5244   6108   6108   46.4  0.540    502   0.00   0.00   1.00   0.00   0.00   0.00   0.00   1.00   0.32  400.0   0.00      0    502    274.1   0.00   0.00 1.7895   0.012   0.008   0.007   0.006   0.006   0.005   0.005   0.005   0.004   0.003      0      0      0       0       0  21.346   12.000
   17 207   276   275  90.000     7  0.000    560   1349   2833    611   2411   5244   6108   6108   46.4  0.540    502   0.00   0.00   1.00   0.00   0.00   0.00   0.00   1.00   0.32  400.0   0.00      0    502    274.1   0.00   0.00 1.7895   0.012   0.008   0.007   0.006   0.006   0.005   0.005   0.005   0.004   0.003      0      0      0       0       0  21.346   12.000
   17 208   277   276  90.000     7  0.000    560   1349   2833    611   2411   5244   6108   6108   46.4  0.540    502   0.00   0.00   1.00   0.00   0.00   0.00   0.00   1.00   0.32  400.0   0.00      0    502    274.1   0.00   0.00 1.7895   0.012   0.008   0.007   0.006   0.006   0.005   0.005   0.005   0.004   0.003      0      0      0       0       0  21.346   12.000
   17 209   278   277  90.000     7  0.000    560   1349   2833    611   2411   5244   6108   6108   46.4  0.540    502   0.00   0.00   1.00   0.00   0.00   0.00   0.00   1.00   0.32  400.0   0.00      0    502    274.1   0.00   0.00 1.7895   0.012   0.008   0.007   0.006   0.006   0.005   0.005   0.005   0.004   0.003      0      0      0       0       0  21.346   12.000
   17 210   279   278  90.000     7  0.000    560   1349   2833    611   2411   5244   6108   6108   46.4  0.540    502   0.00   0.00   1.00   0.00   0.00   0.00   0.00   1.00   0.32  400.0   0.00      0    502    274.1   0.00   0.00 1.7895   0.012   0.008   0.007   0.006   0.006   0.005   0.005   0.005   0.004   0.003      0      0      0       0       0  21.346   12.000
   17 211   280   279  90.000     7  0.000    560   1349   2833    611   2411   5244   6108   6108   46.4  0.540    502   0.00   0.00   1.00   0.00   0.00   0.00   0.00   1.00   0.32  400.0   0.00      0    502    274.1   0.00   0.00 1.7895   0.012   0.008   0.007   0.006   0.006   0.005   0.005   0.005   0.004   0.003      0      0      0       0       0  21.346   12.000
   17 212   281   280  90.000     7  0.000    560   1349   2833    611   2411   5244   6108   6108   46.4  0.540    502   0.00   0.00   1.00   0.00   0.00   0.00   0.00   1.00   0.32  400.0   0.00      0    502    274.1   0.00   0.00 1.7895   0.012   0.008   0.007   0.006   0.006   0.005   0.005   0.005   0.004   0.003      0      0      0       0       0  21.346   12.000
   17 213   282   281  90.000     7  0.000    560   1349   2833    611   2411   5244   6108   6108   46.4  0.540    502   0.00   0.00   1.00   0.00   0.00   0.00   0.00   1.00   0.32  400.0   0.00      0    502    274.1   0.00   0.00 1.7895   0.012   0.008   0.007   0.006   0.006   0.005   0.005   0.005   0.004   0.003      0      0      0       0       0  21.346   12.000
   17 214   283   282  90.000     7  0.000    560   1349   2833    611   2411   5244   6108   6108   46.4  0.540    502   0.00   0.00   1.00   0.00   0.00   0.00   0.00   1.00   0.32  400.0   0.00      0    502    274.1   0.00   0.00 1.7895   0.012   0.008   0.007   0.006   0.006   0.005   0.005   0.005   0.004   0.003      0      0      0       0       0  21.346   12.000
   17 215   284   283  90.000     7  0.000    560   1349   2833    611   2411   5244   6108   6108   46.4  0.540    502   0.00   0.00   1.00   0.00   0.00   0.00   0.00   1.00   0.32  400.0   0.00      0    502    274.1   0.00   0.00 1.7895   0.012   0.008   0.007   0.006   0.006   0.005   0.005   0.005   0.004   0.003      0      0      0       0       0  21.346   12.000
   17 216   285   284  90.000     7  0.000    560   1349   2833    611   2411   5244   6108   6108   46.4  0.540    502   0.00   0.00   1.00   0.00   0.00   0.00   0.00   1.00   0.32  400.0   0.00      0    502    274.1   0.00   0.00 1.7895   0.012   0.008   0.007   0.006   0.006   0.005   0.005   0.005   0.004   0.003      0      0      0       0       0  21.346   12.000
   17 217   286   285  90.000     7  0.000    560   1349   2833    611   2411   5244   6108   6108   46.4  0.540    502   0.00   0.00   1.00   0.00   0.00   0.00   0.00   1.00   0.32  400.0   0.00      0    502    274.1   0.00   0.00 1.7895   0.012   0.008   0.007   0.006   0.006   0.005   0.005   0.005   0.004   0.003      0      0      0       0       0  21.346   12.000
   17 218   287   286  90.000     7  0.000    560   1349   2833    611   2411   5244   6108   6108   46.4  0.540    502   0.00   0.00   1.00   0.00   0.00   0.00   0.00   1.00   0.32  400.0   0.00      0    502    274.1   0.00   0.00 1.7895   0.012   0.008   0.007   0.006   0.006   0.005   0.005   0.005   0.004   0.003      0      0      0       0       0  21.346   12.000
   17 219   288   287  90.000     7  0.000    560   1349   2833    611   2411   5244   6108   6108   46.4  0.540    502   0.00   0.00   1.00   0.00   0.00   0.00   0.00   1.00   0.32  400.0   0.00      0    502    274.1   0.00   0.00 1.7895   0.012   0.008   0.007   0.006   0.006   0.005   0.005   0.005   0.004   0.003      0      0      0       0       0  21.346   12.000
