*Soil Organic Matter daily output file

*DSSAT Cropping System Model Ver. 4.8.5.000 -release  NOV 27, 2025 15:48:48

*RUN   1        : 1                         WHAPS048 TUDU1701    1
 MODEL          : WHAPS048 - Wheat
 EXPERIMENT     : TUDU1701 WH
 DATA PATH      :
 TREATMENT  1   : 1                         WHAPS048
  
@YEAR DOY   DAS    OMAC    SCDD    SOCD    SC0D    SCTD   SOMCT    LCTD    ONAC    SNDD    SOND    SN0D    SNTD   SOMNT    LNTD
   16 297     0       0   31829  311106       0  311106  310026  1080.0    0.00  1073.9 16892.2    0.00 16892.2 16872.7   19.50
   16 298     1       0   31561  311088       0  311088  310023  1064.9    0.00  1063.6 16892.1    0.00 16892.1 16872.4   19.73
   16 299     2       0   31567  311069       0  311069  310020  1049.8    0.00  1063.8 16892.1    0.00 16892.1 16872.1   19.94
   16 300     3       0   31567  311052       0  311052  310017  1035.1    0.00  1063.8 16892.0    0.00 16892.0 16871.8   20.13
   16 301     4       0   31568  311037       0  311037  310014  1022.4    0.00  1063.8 16891.9    0.00 16891.9 16871.6   20.28
   16 302     5       0   31568  311024       0  311024  310012  1012.3    0.00  1063.8 16891.8    0.00 16891.8 16871.4   20.40
   16 303     6       0   31568  311015       0  311015  310010  1005.1    0.00  1063.8 16891.7    0.00 16891.7 16871.2   20.48
   16 304     7       0   31568  311008       0  311008  310008  1000.1    0.00  1063.8 16891.6    0.00 16891.6 16871.1   20.54
   16 305     8       0   31568  311004       0  311004  310007   997.1    0.00  1063.8 16891.5    0.00 16891.5 16871.0   20.57
   16 306     9       0   31568  311001       0  311001  310005   995.1    0.00  1063.8 16891.5    0.00 16891.5 16870.8   20.60
   16 307    10       0   31568  310998       0  310998  310004   993.9    0.00  1063.8 16891.4    0.00 16891.4 16870.8   20.62
   16 308    11       0   31568  310996       0  310996  310003   992.7    0.00  1063.8 16891.3    0.00 16891.3 16870.7   20.64
   16 309    12       0   31568  310994       0  310994  310003   991.8    0.00  1063.8 16891.3    0.00 16891.3 16870.6   20.66
   16 310    13       0   31613  310993       0  310993  310002   991.1    0.00  1065.5 16891.2    0.00 16891.2 16870.5   20.67
   16 311    14       0   31644  310991       0  310991  310001   990.3    0.00  1066.7 16891.1    0.00 16891.1 16870.5   20.68
   16 312    15       0   31644  310990       0  310990  310000   989.5    0.00  1066.7 16891.1    0.00 16891.1 16870.4   20.70
   16 313    16       0   31644  310989       0  310989  310000   988.9    0.00  1066.7 16891.0    0.00 16891.0 16870.3   20.70
   16 314    17       0   31654  310988       0  310988  309999   988.5    0.00  1067.1 16891.0    0.00 16891.0 16870.3   20.71
   16 315    18       0   31676  310987       0  310987  309999   988.1    0.00  1067.9 16891.0    0.00 16891.0 16870.2   20.71
   16 316    19       0   31690  310986       0  310986  309998   987.9    0.00  1068.5 16890.9    0.00 16890.9 16870.2   20.72
   16 317    20       0   31690  310986       0  310986  309998   987.7    0.00  1068.5 16890.9    0.00 16890.9 16870.2   20.72
   16 318    21       0   31690  310985       0  310985  309998   987.4    0.00  1068.5 16890.9    0.00 16890.9 16870.1   20.72
   16 319    22       0   31690  310985       0  310985  309998   987.2    0.00  1068.5 16890.8    0.00 16890.8 16870.1   20.73
   16 320    23       0   31703  310985       0  310985  309997   987.1    0.00  1069.0 16890.8    0.00 16890.8 16870.1   20.73
   16 321    24       0   31721  310984       0  310984  309997   987.0    0.00  1069.7 16890.8    0.00 16890.8 16870.1   20.73
   16 322    25       0   31721  310984       0  310984  309997   986.8    0.00  1069.7 16890.8    0.00 16890.8 16870.1   20.73
   16 323    26       0   31733  310983       0  310983  309997   986.5    0.00  1070.1 16890.8    0.00 16890.8 16870.0   20.73
   16 324    27       0   31745  310981       0  310981  309996   985.6    0.00  1070.6 16890.7    0.00 16890.7 16869.9   20.75
   16 325    28       0   31745  310979       0  310979  309995   984.1    0.00  1070.6 16890.6    0.00 16890.6 16869.8   20.77
   16 326    29       0   31745  310975       0  310975  309993   981.9    0.00  1070.6 16890.5    0.00 16890.5 16869.7   20.79
   16 327    30       0   31745  310972       0  310972  309992   979.5    0.00  1070.6 16890.5    0.00 16890.5 16869.6   20.82
   16 328    31       0   31745  310968       0  310968  309991   977.1    0.00  1070.6 16890.4    0.00 16890.4 16869.5   20.84
   16 329    32       0   31745  310965       0  310965  309990   975.4    0.00  1070.6 16890.3    0.00 16890.3 16869.4   20.86
   16 330    33       0   31745  310962       0  310962  309988   973.3    0.00  1070.6 16890.2    0.00 16890.2 16869.3   20.88
   16 331    34       0   31746  310958       0  310958  309987   970.8    0.00  1070.6 16890.1    0.00 16890.1 16869.2   20.91
   16 332    35       0   31746  310955       0  310955  309986   968.8    0.00  1070.6 16890.0    0.00 16890.0 16869.1   20.93
   16 333    36       0   31746  310953       0  310953  309985   967.8    0.00  1070.6 16890.0    0.00 16890.0 16869.0   20.94
   16 334    37       0   31746  310952       0  310952  309984   967.4    0.00  1070.6 16889.9    0.00 16889.9 16869.0   20.94
   16 335    38       0   31746  310951       0  310951  309984   967.2    0.00  1070.6 16889.9    0.00 16889.9 16869.0   20.95
   16 336    39       0   31746  310951       0  310951  309984   967.2    0.00  1070.6 16889.9    0.00 16889.9 16868.9   20.95
   16 337    40       0   31747  310951       0  310951  309984   967.2    0.00  1070.7 16889.9    0.00 16889.9 16868.9   20.95
   16 338    41       0   31747  310951       0  310951  309984   967.2    0.00  1070.7 16889.9    0.00 16889.9 16868.9   20.95
   16 339    42       0   31747  310951       0  310951  309984   967.2    0.00  1070.7 16889.9    0.00 16889.9 16868.9   20.95
   16 340    43       0   31747  310951       0  310951  309984   967.2    0.00  1070.7 16889.9    0.00 16889.9 16868.9   20.95
   16 341    44       0   31747  310951       0  310951  309984   967.1    0.00  1070.7 16889.9    0.00 16889.9 16868.9   20.95
   16 342    45       0   31747  310951       0  310951  309984   967.1    0.00  1070.7 16889.9    0.00 16889.9 16868.9   20.95
   16 343    46       0   31747  310951       0  310951  309984   967.1    0.00  1070.7 16889.9    0.00 16889.9 16868.9   20.95
   16 344    47       0   31747  310951       0  310951  309984   967.1    0.00  1070.7 16889.9    0.00 16889.9 16868.9   20.95
   16 345    48       0   31747  310951       0  310951  309984   967.1    0.00  1070.7 16889.9    0.00 16889.9 16868.9   20.95
   16 346    49       0   31749  310951       0  310951  309984   967.1    0.00  1070.7 16889.9    0.00 16889.9 16868.9   20.95
   16 347    50       0   31749  310951       0  310951  309984   967.1    0.00  1070.7 16889.9    0.00 16889.9 16868.9   20.95
   16 348    51       0   31749  310951       0  310951  309984   967.1    0.00  1070.7 16889.9    0.00 16889.9 16868.9   20.95
   16 349    52       0   31749  310951       0  310951  309984   967.0    0.00  1070.7 16889.8    0.00 16889.8 16868.9   20.95
   16 350    53       0   31749  310950       0  310950  309983   966.9    0.00  1070.7 16889.8    0.00 16889.8 16868.9   20.95
   16 351    54       0   31749  310950       0  310950  309983   966.9    0.00  1070.7 16889.8    0.00 16889.8 16868.9   20.95
   16 352    55       0   31749  310950       0  310950  309983   966.8    0.00  1070.7 16889.8    0.00 16889.8 16868.9   20.95
   16 353    56       0   31749  310950       0  310950  309983   966.8    0.00  1070.7 16889.8    0.00 16889.8 16868.8   20.95
   16 354    57       0   31749  310950       0  310950  309983   966.7    0.00  1070.7 16889.8    0.00 16889.8 16868.8   20.95
   16 355    58       0   31749  310950       0  310950  309983   966.7    0.00  1070.7 16889.8    0.00 16889.8 16868.8   20.95
   16 356    59       0   31749  310950       0  310950  309983   966.7    0.00  1070.7 16889.8    0.00 16889.8 16868.8   20.95
   16 357    60       0   31749  310950       0  310950  309983   966.7    0.00  1070.7 16889.8    0.00 16889.8 16868.8   20.95
   16 358    61       0   31749  310950       0  310950  309983   966.7    0.00  1070.7 16889.8    0.00 16889.8 16868.8   20.95
   16 359    62       0   31749  310950       0  310950  309983   966.7    0.00  1070.7 16889.8    0.00 16889.8 16868.8   20.95
   16 360    63       0   31749  310950       0  310950  309983   966.7    0.00  1070.7 16889.8    0.00 16889.8 16868.8   20.95
   16 361    64       0   31750  310949       0  310949  309983   966.7    0.00  1070.8 16889.8    0.00 16889.8 16868.8   20.95
   16 362    65       0   31750  310949       0  310949  309983   966.6    0.00  1070.8 16889.8    0.00 16889.8 16868.8   20.95
   16 363    66       0   31750  310949       0  310949  309982   966.4    0.00  1070.8 16889.7    0.00 16889.7 16868.8   20.95
   16 364    67       0   31750  310948       0  310948  309982   966.1    0.00  1070.8 16889.7    0.00 16889.7 16868.7   20.95
   16 365    68       0   31750  310948       0  310948  309982   966.0    0.00  1070.8 16889.7    0.00 16889.7 16868.7   20.95
   16 366    69       0   31750  310948       0  310948  309982   965.9    0.00  1070.8 16889.7    0.00 16889.7 16868.7   20.95
   17 001    70       0   31750  310948       0  310948  309982   965.9    0.00  1070.8 16889.7    0.00 16889.7 16868.7   20.95
   17 002    71       0   31752  310948       0  310948  309982   965.9    0.00  1070.8 16889.7    0.00 16889.7 16868.7   20.95
   17 003    72       0   31752  310948       0  310948  309982   965.9    0.00  1070.8 16889.7    0.00 16889.7 16868.7   20.95
   17 004    73       0   31752  310948       0  310948  309982   965.9    0.00  1070.8 16889.7    0.00 16889.7 16868.7   20.95
   17 005    74       0   31752  310948       0  310948  309982   965.9    0.00  1070.8 16889.7    0.00 16889.7 16868.7   20.95
   17 006    75       0   31761  310948       0  310948  309982   965.9    0.00  1071.2 16889.7    0.00 16889.7 16868.7   20.95
   17 007    76       0   31772  310948       0  310948  309982   965.9    0.00  1071.6 16889.7    0.00 16889.7 16868.7   20.95
   17 008    77       0   31772  310948       0  310948  309982   965.9    0.00  1071.6 16889.7    0.00 16889.7 16868.7   20.95
   17 009    78       0   31772  310948       0  310948  309982   965.9    0.00  1071.6 16889.7    0.00 16889.7 16868.7   20.95
   17 010    79       0   31772  310948       0  310948  309982   965.9    0.00  1071.6 16889.7    0.00 16889.7 16868.7   20.95
   17 011    80       0   31773  310948       0  310948  309982   965.9    0.00  1071.6 16889.7    0.00 16889.7 16868.7   20.95
   17 012    81       0   31783  310948       0  310948  309982   965.9    0.00  1072.0 16889.7    0.00 16889.7 16868.7   20.95
   17 013    82       0   31783  310948       0  310948  309982   965.9    0.00  1072.0 16889.7    0.00 16889.7 16868.7   20.95
   17 014    83       0   31783  310948       0  310948  309982   965.9    0.00  1072.0 16889.7    0.00 16889.7 16868.7   20.95
   17 015    84       0   31783  310948       0  310948  309982   965.9    0.00  1072.0 16889.7    0.00 16889.7 16868.7   20.95
   17 016    85       0   31783  310948       0  310948  309982   965.9    0.00  1072.0 16889.7    0.00 16889.7 16868.7   20.95
   17 017    86       0   31783  310948       0  310948  309982   965.9    0.00  1072.0 16889.7    0.00 16889.7 16868.7   20.95
   17 018    87       0   31783  310948       0  310948  309982   965.9    0.00  1072.0 16889.7    0.00 16889.7 16868.7   20.95
   17 019    88       0   31783  310948       0  310948  309982   965.9    0.00  1072.0 16889.7    0.00 16889.7 16868.7   20.95
   17 020    89       0   31831  310948       0  310948  309982   965.9    0.00  1073.9 16889.7    0.00 16889.7 16868.7   20.95
   17 021    90       0   31831  310948       0  310948  309982   965.9    0.00  1073.9 16889.7    0.00 16889.7 16868.7   20.95
   17 022    91       0   31831  310948       0  310948  309982   965.9    0.00  1073.9 16889.7    0.00 16889.7 16868.7   20.95
   17 023    92       0   31831  310948       0  310948  309982   965.9    0.00  1073.9 16889.7    0.00 16889.7 16868.7   20.95
   17 024    93       0   31831  310948       0  310948  309982   965.9    0.00  1073.9 16889.7    0.00 16889.7 16868.7   20.95
   17 025    94       0   31831  310948       0  310948  309982   965.9    0.00  1073.9 16889.7    0.00 16889.7 16868.7   20.95
   17 026    95       0   31831  310948       0  310948  309982   965.9    0.00  1073.9 16889.7    0.00 16889.7 16868.7   20.95
   17 027    96       0   31831  310948       0  310948  309982   965.9    0.00  1073.9 16889.7    0.00 16889.7 16868.7   20.95
   17 028    97       0   31831  310948       0  310948  309982   965.9    0.00  1073.9 16889.7    0.00 16889.7 16868.7   20.95
   17 029    98       0   31831  310948       0  310948  309982   965.9    0.00  1073.9 16889.7    0.00 16889.7 16868.7   20.95
   17 030    99       0   31831  310948       0  310948  309982   965.9    0.00  1073.9 16889.7    0.00 16889.7 16868.7   20.95
   17 031   100       0   31831  310948       0  310948  309982   965.9    0.00  1073.9 16889.7    0.00 16889.7 16868.7   20.95
   17 032   101       0   31831  310948       0  310948  309982   965.9    0.00  1073.9 16889.7    0.00 16889.7 16868.7   20.95
   17 033   102       0   31831  310948       0  310948  309982   965.9    0.00  1073.9 16889.7    0.00 16889.7 16868.7   20.95
   17 034   103       0   31831  310948       0  310948  309982   965.9    0.00  1073.9 16889.7    0.00 16889.7 16868.7   20.95
   17 035   104       0   31831  310948       0  310948  309982   965.9    0.00  1073.9 16889.7    0.00 16889.7 16868.7   20.95
   17 036   105       0   31831  310948       0  310948  309982   965.9    0.00  1073.9 16889.7    0.00 16889.7 16868.7   20.95
   17 037   106       0   31831  310948       0  310948  309982   965.9    0.00  1073.9 16889.7    0.00 16889.7 16868.7   20.95
   17 038   107       0   31831  310948       0  310948  309982   965.9    0.00  1073.9 16889.7    0.00 16889.7 16868.7   20.95
   17 039   108       0   31831  310947       0  310947  309982   965.9    0.00  1073.9 16889.7    0.00 16889.7 16868.7   20.95
   17 040   109       0   31831  310947       0  310947  309982   965.9    0.00  1073.9 16889.7    0.00 16889.7 16868.7   20.95
   17 041   110       0   31831  310947       0  310947  309982   965.9    0.00  1073.9 16889.7    0.00 16889.7 16868.7   20.95
   17 042   111       0   31831  310947       0  310947  309982   965.9    0.00  1073.9 16889.7    0.00 16889.7 16868.7   20.95
   17 043   112       0   31831  310947       0  310947  309982   965.9    0.00  1073.9 16889.7    0.00 16889.7 16868.7   20.95
   17 044   113       0   31831  310947       0  310947  309982   965.9    0.00  1073.9 16889.7    0.00 16889.7 16868.7   20.95
   17 045   114       0   31831  310947       0  310947  309982   965.9    0.00  1073.9 16889.7    0.00 16889.7 16868.7   20.95
   17 046   115       0   31831  310947       0  310947  309982   965.9    0.00  1073.9 16889.7    0.00 16889.7 16868.7   20.95
   17 047   116       0   31831  310947       0  310947  309982   965.9    0.00  1073.9 16889.7    0.00 16889.7 16868.7   20.95
   17 048   117       0   31831  310947       0  310947  309982   965.9    0.00  1073.9 16889.7    0.00 16889.7 16868.7   20.95
   17 049   118       0   31831  310947       0  310947  309982   965.9    0.00  1073.9 16889.7    0.00 16889.7 16868.7   20.95
   17 050   119       0   31831  310947       0  310947  309982   965.9    0.00  1073.9 16889.7    0.00 16889.7 16868.7   20.95
   17 051   120       0   31831  310947       0  310947  309982   965.9    0.00  1073.9 16889.7    0.00 16889.7 16868.7   20.95
   17 052   121       0   31831  310947       0  310947  309982   965.9    0.00  1073.9 16889.7    0.00 16889.7 16868.7   20.95
   17 053   122       0   31831  310947       0  310947  309982   965.9    0.00  1073.9 16889.7    0.00 16889.7 16868.7   20.95
   17 054   123       0   31831  310947       0  310947  309981   965.8    0.00  1073.9 16889.6    0.00 16889.6 16868.7   20.95
   17 055   124       0   31831  310943       0  310943  309981   962.6    0.00  1073.9 16889.6    0.00 16889.6 16868.6   20.97
   17 056   125       0   31832  310938       0  310938  309980   957.8    0.00  1073.9 16889.5    0.00 16889.5 16868.5   21.00
   17 057   126       0   31832  310933       0  310933  309979   954.3    0.00  1073.9 16889.5    0.00 16889.5 16868.5   21.03
   17 058   127       0   31832  310931       0  310931  309978   952.2    0.00  1073.9 16889.5    0.00 16889.5 16868.4   21.04
   17 059   128       0   31832  310930       0  310930  309978   951.7    0.00  1073.9 16889.4    0.00 16889.4 16868.4   21.04
   17 060   129       0   31832  310930       0  310930  309978   951.7    0.00  1073.9 16889.4    0.00 16889.4 16868.4   21.04
   17 061   130       0   31832  310930       0  310930  309978   951.7    0.00  1073.9 16889.4    0.00 16889.4 16868.4   21.04
   17 062   131       0   31832  310930       0  310930  309978   951.7    0.00  1073.9 16889.4    0.00 16889.4 16868.4   21.04
   17 063   132       0   31832  310930       0  310930  309978   951.7    0.00  1073.9 16889.4    0.00 16889.4 16868.4   21.04
   17 064   133       0   31832  310930       0  310930  309978   951.6    0.00  1073.9 16889.4    0.00 16889.4 16868.4   21.04
   17 065   134       0   31832  310929       0  310929  309978   951.4    0.00  1073.9 16889.4    0.00 16889.4 16868.4   21.04
   17 066   135       0   31832  310928       0  310928  309977   950.7    0.00  1073.9 16889.4    0.00 16889.4 16868.3   21.05
   17 067   136       0   31832  310928       0  310928  309977   950.6    0.00  1073.9 16889.4    0.00 16889.4 16868.3   21.05
   17 068   137       0   31832  310927       0  310927  309977   950.3    0.00  1073.9 16889.3    0.00 16889.3 16868.3   21.05
   17 069   138       0   31832  310927       0  310927  309977   950.1    0.00  1073.9 16889.3    0.00 16889.3 16868.3   21.05
   17 070   139       0   31832  310927       0  310927  309977   950.1    0.00  1073.9 16889.3    0.00 16889.3 16868.3   21.05
   17 071   140       0   31832  310927       0  310927  309977   950.1    0.00  1073.9 16889.3    0.00 16889.3 16868.3   21.05
   17 072   141       0   31832  310927       0  310927  309977   950.1    0.00  1073.9 16889.3    0.00 16889.3 16868.3   21.05
   17 073   142       0   31832  310927       0  310927  309977   950.0    0.00  1073.9 16889.3    0.00 16889.3 16868.3   21.05
   17 074   143       0   31832  310927       0  310927  309977   950.0    0.00  1073.9 16889.3    0.00 16889.3 16868.3   21.05
   17 075   144       0   31832  310927       0  310927  309977   950.0    0.00  1073.9 16889.3    0.00 16889.3 16868.3   21.05
   17 076   145       0   31832  310926       0  310926  309977   949.7    0.00  1073.9 16889.3    0.00 16889.3 16868.2   21.05
   17 077   146       0   31832  310924       0  310924  309976   947.6    0.00  1073.9 16889.3    0.00 16889.3 16868.2   21.07
   17 078   147       0   31832  310920       0  310920  309975   944.3    0.00  1073.9 16889.2    0.00 16889.2 16868.1   21.08
   17 079   148       0   31832  310913       0  310913  309975   939.0    0.00  1073.9 16889.2    0.00 16889.2 16868.1   21.11
   17 080   149       0   31832  310906       0  310906  309973   932.6    0.00  1073.9 16889.1    0.00 16889.1 16868.0   21.14
   17 081   150       0   31833  310897       0  310897  309972   925.5    0.00  1073.9 16889.0    0.00 16889.0 16867.8   21.17
   17 082   151       0   31833  310890       0  310890  309971   919.7    0.00  1073.9 16889.0    0.00 16889.0 16867.8   21.20
   17 083   152       0   31833  310883       0  310883  309969   913.8    0.00  1073.9 16888.9    0.00 16888.9 16867.7   21.22
   17 084   153       0   31833  310878       0  310878  309968   909.7    0.00  1073.9 16888.8    0.00 16888.8 16867.6   21.23
   17 085   154       0   31833  310874       0  310874  309968   906.5    0.00  1073.9 16888.8    0.00 16888.8 16867.5   21.25
   17 086   155       0   31833  310872       0  310872  309967   904.6    0.00  1073.9 16888.7    0.00 16888.7 16867.5   21.25
   17 087   156       0   31833  310869       0  310869  309966   902.3    0.00  1073.9 16888.7    0.00 16888.7 16867.4   21.26
   17 088   157       0   31833  310866       0  310866  309966   900.1    0.00  1073.9 16888.6    0.00 16888.6 16867.4   21.27
   17 089   158       0   31833  310861       0  310861  309964   896.8    0.00  1073.9 16888.6    0.00 16888.6 16867.3   21.28
   17 090   159       0   31833  310856       0  310856  309963   893.2    0.00  1073.9 16888.5    0.00 16888.5 16867.2   21.29
   17 091   160       0   31833  310849       0  310849  309961   888.3    0.00  1073.9 16888.4    0.00 16888.4 16867.0   21.31
   17 092   161       0   31833  310841       0  310841  309958   883.0    0.00  1073.9 16888.2    0.00 16888.2 16866.9   21.33
   17 093   162       0   31833  310832       0  310832  309955   877.4    0.00  1073.9 16888.0    0.00 16888.0 16866.7   21.34
   17 094   163       0   31833  310823       0  310823  309952   871.3    0.00  1073.9 16887.8    0.00 16887.8 16866.5   21.36
   17 095   164       0   31833  310815       0  310815  309949   866.0    0.00  1073.9 16887.7    0.00 16887.7 16866.3   21.37
   17 096   165       0   31833  310809       0  310809  309947   861.9    0.00  1073.9 16887.5    0.00 16887.5 16866.2   21.38
   17 097   166       0   31833  310804       0  310804  309945   859.2    0.00  1073.9 16887.4    0.00 16887.4 16866.1   21.38
   17 098   167       0   31833  310801       0  310801  309944   857.2    0.00  1073.9 16887.4    0.00 16887.4 16866.0   21.39
   17 099   168       0   31833  310798       0  310798  309942   855.3    0.00  1073.9 16887.3    0.00 16887.3 16865.9   21.39
   17 100   169       0   31833  310794       0  310794  309941   853.0    0.00  1073.9 16887.2    0.00 16887.2 16865.8   21.39
   17 101   170       0   31833  310789       0  310789  309938   850.1    0.00  1073.9 16887.1    0.00 16887.1 16865.7   21.40
   17 102   171       0   31833  310783       0  310783  309936   847.2    0.00  1073.9 16886.9    0.00 16886.9 16865.5   21.40
   17 103   172       0   31833  310778       0  310778  309934   844.5    0.00  1073.9 16886.8    0.00 16886.8 16865.4   21.40
   17 104   173       0   31833  310773       0  310773  309931   841.9    0.00  1073.9 16886.6    0.00 16886.6 16865.2   21.41
   17 105   174       0   31833  310769       0  310769  309929   839.8    0.00  1073.9 16886.5    0.00 16886.5 16865.1   21.41
   17 106   175       0   31833  310766       0  310766  309928   838.1    0.00  1073.9 16886.4    0.00 16886.4 16865.0   21.41
   17 107   176       0   31833  310762       0  310762  309926   836.3    0.00  1073.8 16886.3    0.00 16886.3 16864.9   21.41
   17 108   177       0   31833  310758       0  310758  309925   833.7    0.00  1073.8 16886.2    0.00 16886.2 16864.8   21.41
   17 109   178       0   31833  310756       0  310756  309924   832.3    0.00  1073.8 16886.2    0.00 16886.2 16864.8   21.41
   17 110   179       0   31833  310756       0  310756  309924   832.1    0.00  1073.8 16886.2    0.00 16886.2 16864.8   21.40
   17 111   180       0   31833  310756       0  310756  309924   832.1    0.00  1073.8 16886.2    0.00 16886.2 16864.8   21.40
   17 112   181       0   31833  310756       0  310756  309924   832.1    0.00  1073.8 16886.2    0.00 16886.2 16864.8   21.40
   17 113   182       0   31833  310756       0  310756  309924   832.1    0.00  1073.8 16886.2    0.00 16886.2 16864.8   21.40
   17 114   183       0   31833  310756       0  310756  309924   832.1    0.00  1073.8 16886.2    0.00 16886.2 16864.8   21.40
   17 115   184       0   31833  310756       0  310756  309924   832.1    0.00  1073.8 16886.2    0.00 16886.2 16864.8   21.40
   17 116   185       0   31833  310756       0  310756  309924   831.8    0.00  1073.8 16886.2    0.00 16886.2 16864.8   21.40
   17 117   186       0   31833  310756       0  310756  309924   831.8    0.00  1073.8 16886.2    0.00 16886.2 16864.8   21.40
   17 118   187       0   31833  310756       0  310756  309924   831.8    0.00  1073.8 16886.2    0.00 16886.2 16864.8   21.40
   17 119   188       0   31833  310756       0  310756  309924   831.8    0.00  1073.8 16886.2    0.00 16886.2 16864.8   21.40
   17 120   189       0   31833  310756       0  310756  309924   831.8    0.00  1073.8 16886.2    0.00 16886.2 16864.8   21.40
   17 121   190       0   31833  310756       0  310756  309924   831.8    0.00  1073.8 16886.2    0.00 16886.2 16864.8   21.40
   17 122   191       0   31833  310755       0  310755  309924   831.6    0.00  1073.8 16886.2    0.00 16886.2 16864.7   21.40
   17 123   192       0   31833  310753       0  310753  309923   830.3    0.00  1073.8 16886.1    0.00 16886.1 16864.7   21.40
   17 124   193       0   31832  310749       0  310749  309921   828.4    0.00  1073.8 16886.0    0.00 16886.0 16864.6   21.40
   17 125   194       0   31832  310745       0  310745  309919   826.1    0.00  1073.8 16885.9    0.00 16885.9 16864.5   21.40
   17 126   195       0   31832  310740       0  310740  309916   823.3    0.00  1073.8 16885.7    0.00 16885.7 16864.3   21.40
   17 127   196       0   31832  310733       0  310733  309913   820.0    0.00  1073.8 16885.6    0.00 16885.6 16864.2   21.39
   17 128   197       0   31831  310727       0  310727  309910   816.4    0.00  1073.8 16885.4    0.00 16885.4 16864.0   21.39
   17 129   198       0   31831  310720       0  310720  309907   812.3    0.00  1073.8 16885.2    0.00 16885.2 16863.8   21.38
   17 130   199       0   31831  310712       0  310712  309905   807.6    0.00  1073.8 16885.0    0.00 16885.0 16863.7   21.37
   17 131   200       0   31831  310706       0  310706  309903   803.1    0.00  1073.8 16884.9    0.00 16884.9 16863.6   21.35
   17 132   201       0   31831  310700       0  310700  309900   799.1    0.00  1073.8 16884.8    0.00 16884.8 16863.4   21.34
   17 133   202       0   31831  310693       0  310693  309897   795.2    0.00  1073.8 16884.6    0.00 16884.6 16863.3   21.33
   17 134   203       0   31831  310684       0  310684  309894   790.8    0.00  1073.8 16884.4    0.00 16884.4 16863.0   21.31
   17 135   204       0   31830  310675       0  310675  309889   785.7    0.00  1073.7 16884.1    0.00 16884.1 16862.8   21.29
   17 136   205       0   31830  310663       0  310663  309884   778.8    0.00  1073.7 16883.8    0.00 16883.8 16862.5   21.27
   17 137   206       0   31830  310650       0  310650  309879   770.4    0.00  1073.7 16883.4    0.00 16883.4 16862.2   21.23
   17 138   207       0   31830  310636       0  310636  309874   761.7    0.00  1073.7 16883.1    0.00 16883.1 16861.9   21.18
   17 139   208       0   31830  310622       0  310622  309869   753.1    0.00  1073.7 16882.8    0.00 16882.8 16861.6   21.13
   17 140   209       0   31829  310609       0  310609  309864   744.6    0.00  1073.7 16882.4    0.00 16882.4 16861.3   21.08
   17 141   210       0   31829  310595       0  310595  309859   736.0    0.00  1073.7 16882.1    0.00 16882.1 16861.0   21.02
   17 142   211       0   31829  310582       0  310582  309854   727.5    0.00  1073.7 16881.7    0.00 16881.7 16860.8   20.96
   17 143   212       0   31829  310568       0  310568  309849   718.9    0.00  1073.7 16881.4    0.00 16881.4 16860.5   20.89
   17 144   213       0   31829  310556       0  310556  309845   711.0    0.00  1073.7 16881.0    0.00 16881.0 16860.2   20.83
   17 145   214       0   31829  310544       0  310544  309841   703.5    0.00  1073.7 16880.7    0.00 16880.7 16860.0   20.76
   17 146   215       0   31829  310532       0  310532  309836   695.9    0.00  1073.7 16880.4    0.00 16880.4 16859.7   20.69
   17 147   216       0   31829  310520       0  310520  309831   688.4    0.00  1073.7 16880.0    0.00 16880.0 16859.4   20.62
   17 148   217       0   31829  310507       0  310507  309826   681.4    0.00  1073.7 16879.7    0.00 16879.7 16859.1   20.55
   17 149   218       0   31828  310495       0  310495  309821   674.7    0.00  1073.6 16879.3    0.00 16879.3 16858.8   20.48
   17 150   219       0   31828  310482       0  310482  309815   667.9    0.00  1073.6 16878.9    0.00 16878.9 16858.5   20.40
   17 151   220       0   31828  310466       0  310466  309808   657.8    0.00  1073.6 16878.4    0.00 16878.4 16858.1   20.30
   17 152   221       0   31828  310448       0  310448  309800   648.0    0.00  1073.6 16877.9    0.00 16877.9 16857.7   20.19
   17 153   222       0   31827  310431       0  310431  309792   639.0    0.00  1073.6 16877.3    0.00 16877.3 16857.2   20.08
   17 154   223       0   31827  310416       0  310416  309785   631.0    0.00  1073.6 16876.8    0.00 16876.8 16856.8   19.98
   17 155   224       0   31826  310399       0  310399  309777   622.2    0.00  1073.6 16876.2    0.00 16876.2 16856.4   19.86
   17 156   225       0   31826  310386       0  310386  309771   615.3    0.00  1073.6 16875.7    0.00 16875.7 16856.0   19.77
   17 157   226       0   31826  310373       0  310373  309765   608.7    0.00  1073.6 16875.3    0.00 16875.3 16855.6   19.68
   17 158   227       0   31826  310361       0  310361  309759   601.9    0.00  1073.5 16874.9    0.00 16874.9 16855.3   19.58
   17 159   228       0   31825  310351       0  310351  309755   595.8    0.00  1073.5 16874.5    0.00 16874.5 16855.0   19.48
   17 160   229       0   31825  310342       0  310342  309751   590.9    0.00  1073.5 16874.2    0.00 16874.2 16854.8   19.41
   17 161   230       0   31825  310333       0  310333  309747   585.7    0.00  1073.5 16873.9    0.00 16873.9 16854.6   19.32
   17 162   231       0   31825  310323       0  310323  309743   580.3    0.00  1073.5 16873.6    0.00 16873.6 16854.4   19.24
   17 163   232       0   31824  310314       0  310314  309739   575.1    0.00  1073.5 16873.2    0.00 16873.2 16854.1   19.15
   17 164   233       0   31824  310304       0  310304  309734   570.0    0.00  1073.5 16872.9    0.00 16872.9 16853.8   19.06
   17 165   234       0   31824  310294       0  310294  309728   565.2    0.00  1073.5 16872.5    0.00 16872.5 16853.5   18.98
   17 166   235       0   31823  310284       0  310284  309723   561.0    0.00  1073.5 16872.1    0.00 16872.1 16853.2   18.90
   17 167   236       0   31823  310274       0  310274  309718   556.1    0.00  1073.5 16871.7    0.00 16871.7 16852.8   18.82
   17 168   237       0   31823  310265       0  310265  309713   552.3    0.00  1073.4 16871.3    0.00 16871.3 16852.5   18.75
   17 169   238       0   31822  310257       0  310257  309708   549.2    0.00  1073.4 16870.9    0.00 16870.9 16852.2   18.69
   17 170   239       0   31822  310250       0  310250  309703   546.6    0.00  1073.4 16870.6    0.00 16870.6 16852.0   18.64
   17 171   240       0   31822  310243       0  310243  309699   544.4    0.00  1073.4 16870.3    0.00 16870.3 16851.7   18.60
   17 172   241       0   31821  310237       0  310237  309694   542.5    0.00  1073.4 16870.0    0.00 16870.0 16851.4   18.56
   17 173   242       0   31821  310231       0  310231  309690   540.8    0.00  1073.4 16869.6    0.00 16869.6 16851.1   18.53
   17 174   243       0   31821  310223       0  310223  309685   537.9    0.00  1073.4 16869.3    0.00 16869.3 16850.8   18.47
   17 175   244       0   31820  310215       0  310215  309679   535.7    0.00  1073.4 16868.9    0.00 16868.9 16850.4   18.43
   17 176   245       0   31820  310208       0  310208  309674   534.1    0.00  1073.4 16868.5    0.00 16868.5 16850.1   18.39
   17 177   246       0   31820  310201       0  310201  309669   532.4    0.00  1073.3 16868.2    0.00 16868.2 16849.8   18.36
   17 178   247       0   31819  310194       0  310194  309664   529.6    0.00  1073.3 16867.8    0.00 16867.8 16849.5   18.30
   17 179   248       0   31819  310184       0  310184  309659   525.0    0.00  1073.3 16867.4    0.00 16867.4 16849.2   18.20
   17 180   249       0   31818  310172       0  310172  309654   517.5    0.00  1073.3 16866.9    0.00 16866.9 16848.9   18.05
   17 181   250       0   31818  310160       0  310160  309650   509.6    0.00  1073.3 16866.5    0.00 16866.5 16848.6   17.88
   17 182   251       0   31818  310147       0  310147  309645   502.0    0.00  1073.3 16866.0    0.00 16866.0 16848.3   17.72
   17 183   252       0   31817  310137       0  310137  309641   496.0    0.00  1073.3 16865.6    0.00 16865.6 16848.0   17.58
   17 184   253       0   31817  310128       0  310128  309637   491.3    0.00  1073.2 16865.2    0.00 16865.2 16847.8   17.47
   17 185   254       0   31816  310120       0  310120  309633   487.3    0.00  1073.2 16864.9    0.00 16864.9 16847.5   17.38
   17 186   255       0   31816  310113       0  310113  309629   484.0    0.00  1073.2 16864.6    0.00 16864.6 16847.3   17.30
   17 187   256       0   31815  310106       0  310106  309625   481.6    0.00  1073.2 16864.3    0.00 16864.3 16847.0   17.25
   17 188   257       0   31815  310101       0  310101  309621   480.8    0.00  1073.2 16864.0    0.00 16864.0 16846.8   17.23
   17 189   258       0   31815  310096       0  310096  309616   480.1    0.00  1073.2 16863.7    0.00 16863.7 16846.5   17.21
   17 190   259       0   31814  310091       0  310091  309611   479.4    0.00  1073.2 16863.4    0.00 16863.4 16846.2   17.19
   17 191   260       0   31814  310078       0  310078  309606   471.7    0.00  1073.2 16862.9    0.00 16862.9 16845.8   17.01
   17 192   261       0   31813  310064       0  310064  309600   463.8    0.00  1073.1 16862.3    0.00 16862.3 16845.5   16.82
   17 193   262       0   31813  310051       0  310051  309595   456.2    0.00  1073.1 16861.8    0.00 16861.8 16845.2   16.63
   17 194   263       0   31812  310038       0  310038  309589   449.0    0.00  1073.1 16861.3    0.00 16861.3 16844.8   16.45
   17 195   264       0   31812  310026       0  310026  309584   442.8    0.00  1073.1 16860.8    0.00 16860.8 16844.5   16.29
   17 196   265       0   31811  310016       0  310016  309579   437.4    0.00  1073.1 16860.4    0.00 16860.4 16844.2   16.14
   17 197   266       0   31811  310007       0  310007  309574   432.2    0.00  1073.1 16860.0    0.00 16860.0 16844.0   16.01
   17 198   267       0   31810  309998       0  309998  309570   427.7    0.00  1073.0 16859.6    0.00 16859.6 16843.7   15.89
   17 199   268       0   31810  309989       0  309989  309566   423.6    0.00  1073.0 16859.2    0.00 16859.2 16843.5   15.78
   17 200   269       0   31809  309981       0  309981  309561   419.7    0.00  1073.0 16858.9    0.00 16858.9 16843.2   15.67
   17 201   270       0   31808  309971       0  309971  309556   415.5    0.00  1073.0 16858.4    0.00 16858.4 16842.9   15.56
   17 202   271       0   31808  309962       0  309962  309550   411.5    0.00  1073.0 16858.0    0.00 16858.0 16842.6   15.44
   17 203   272       0   31807  309952       0  309952  309544   407.4    0.00  1073.0 16857.5    0.00 16857.5 16842.2   15.33
   17 204   273       0   31806  309940       0  309940  309538   402.7    0.00  1072.9 16857.0    0.00 16857.0 16841.8   15.19
   17 205   274       0   31805  309930       0  309930  309531   398.3    0.00  1072.9 16856.6    0.00 16856.6 16841.5   15.07
   17 206   275       0   31804  309919       0  309919  309526   393.8    0.00  1072.9 16856.1    0.00 16856.1 16841.2   14.94
   17 207   276       0   31804  309910       0  309910  309520   389.8    0.00  1072.9 16855.7    0.00 16855.7 16840.9   14.82
   17 208   277       0   31803  309901       0  309901  309515   386.2    0.00  1072.8 16855.3    0.00 16855.3 16840.6   14.72
   17 209   278       0   31802  309892       0  309892  309509   382.7    0.00  1072.8 16854.9    0.00 16854.9 16840.3   14.62
   17 210   279       0   31802  309883       0  309883  309504   378.7    0.00  1072.8 16854.5    0.00 16854.5 16840.0   14.51
   17 211   280       0   31801  309873       0  309873  309498   374.2    0.00  1072.8 16854.1    0.00 16854.1 16839.7   14.39
   17 212   281       0   31801  309861       0  309861  309492   369.2    0.00  1072.8 16853.6    0.00 16853.6 16839.3   14.25
   17 213   282       0   31800  309848       0  309848  309484   363.6    0.00  1072.7 16853.0    0.00 16853.0 16838.9   14.09
   17 214   283       0   31799  309833       0  309833  309475   357.3    0.00  1072.7 16852.4    0.00 16852.4 16838.5   13.91
   17 215   284       0   31798  309817       0  309817  309466   350.9    0.00  1072.7 16851.7    0.00 16851.7 16838.0   13.72
   17 216   285       0   31797  309801       0  309801  309457   344.4    0.00  1072.7 16851.0    0.00 16851.0 16837.5   13.53
   17 217   286       0   31796  309785       0  309785  309447   337.9    0.00  1072.6 16850.3    0.00 16850.3 16837.0   13.33
   17 218   287       0   31795  309770       0  309770  309438   332.0    0.00  1072.6 16849.6    0.00 16849.6 16836.5   13.15
   17 219   288       0   31794  309756       0  309756  309429   327.0    0.00  1072.6 16849.0    0.00 16849.0 16836.0   12.99

*DSSAT Cropping System Model Ver. 4.8.5.000 -release  NOV 27, 2025 15:48:48

*RUN   2        : 2                         WHAPS048 TUDU1701    2
 MODEL          : WHAPS048 - Wheat
 EXPERIMENT     : TUDU1701 WH
 DATA PATH      :
 TREATMENT  2   : 2                         WHAPS048
  
@YEAR DOY   DAS    OMAC    SCDD    SOCD    SC0D    SCTD   SOMCT    LCTD    ONAC    SNDD    SOND    SN0D    SNTD   SOMNT    LNTD
   16 297     0       0   31829  311106       0  311106  310026  1080.0    0.00  1073.9 16892.2    0.00 16892.2 16872.7   19.50
   16 298     1       0   31561  311088       0  311088  310023  1064.9    0.00  1063.6 16892.1    0.00 16892.1 16872.4   19.73
   16 299     2       0   31567  311069       0  311069  310020  1049.8    0.00  1063.8 16892.1    0.00 16892.1 16872.1   19.94
   16 300     3       0   31567  311052       0  311052  310017  1035.1    0.00  1063.8 16892.0    0.00 16892.0 16871.8   20.13
   16 301     4       0   31568  311037       0  311037  310014  1022.4    0.00  1063.8 16891.9    0.00 16891.9 16871.6   20.28
   16 302     5       0   31568  311024       0  311024  310012  1012.3    0.00  1063.8 16891.8    0.00 16891.8 16871.4   20.40
   16 303     6       0   31568  311015       0  311015  310010  1005.1    0.00  1063.8 16891.7    0.00 16891.7 16871.2   20.48
   16 304     7       0   31568  311008       0  311008  310008  1000.1    0.00  1063.8 16891.6    0.00 16891.6 16871.1   20.54
   16 305     8       0   31568  311004       0  311004  310007   997.1    0.00  1063.8 16891.5    0.00 16891.5 16871.0   20.57
   16 306     9       0   31568  311001       0  311001  310005   995.1    0.00  1063.8 16891.5    0.00 16891.5 16870.8   20.60
   16 307    10       0   31568  310998       0  310998  310004   993.9    0.00  1063.8 16891.4    0.00 16891.4 16870.8   20.62
   16 308    11       0   31568  310996       0  310996  310003   992.7    0.00  1063.8 16891.3    0.00 16891.3 16870.7   20.64
   16 309    12       0   31568  310994       0  310994  310003   991.8    0.00  1063.8 16891.3    0.00 16891.3 16870.6   20.66
   16 310    13       0   31613  310993       0  310993  310002   991.1    0.00  1065.5 16891.2    0.00 16891.2 16870.5   20.67
   16 311    14       0   31644  310991       0  310991  310001   990.3    0.00  1066.7 16891.1    0.00 16891.1 16870.5   20.68
   16 312    15       0   31644  310990       0  310990  310000   989.5    0.00  1066.7 16891.1    0.00 16891.1 16870.4   20.70
   16 313    16       0   31644  310989       0  310989  310000   988.9    0.00  1066.7 16891.0    0.00 16891.0 16870.3   20.70
   16 314    17       0   31654  310988       0  310988  309999   988.5    0.00  1067.1 16891.0    0.00 16891.0 16870.3   20.71
   16 315    18       0   31676  310987       0  310987  309999   988.1    0.00  1067.9 16891.0    0.00 16891.0 16870.2   20.71
   16 316    19       0   31690  310986       0  310986  309998   987.9    0.00  1068.5 16890.9    0.00 16890.9 16870.2   20.72
   16 317    20       0   31690  310986       0  310986  309998   987.7    0.00  1068.5 16890.9    0.00 16890.9 16870.2   20.72
   16 318    21       0   31690  310985       0  310985  309998   987.4    0.00  1068.5 16890.9    0.00 16890.9 16870.1   20.72
   16 319    22       0   31690  310985       0  310985  309998   987.2    0.00  1068.5 16890.8    0.00 16890.8 16870.1   20.73
   16 320    23       0   31703  310985       0  310985  309997   987.1    0.00  1069.0 16890.8    0.00 16890.8 16870.1   20.73
   16 321    24       0   31721  310984       0  310984  309997   987.0    0.00  1069.7 16890.8    0.00 16890.8 16870.1   20.73
   16 322    25       0   31721  310984       0  310984  309997   986.8    0.00  1069.7 16890.8    0.00 16890.8 16870.1   20.73
   16 323    26       0   31733  310983       0  310983  309997   986.5    0.00  1070.1 16890.8    0.00 16890.8 16870.0   20.73
   16 324    27       0   31745  310981       0  310981  309996   985.6    0.00  1070.6 16890.7    0.00 16890.7 16869.9   20.75
   16 325    28       0   31745  310979       0  310979  309995   984.1    0.00  1070.6 16890.6    0.00 16890.6 16869.8   20.77
   16 326    29       0   31745  310975       0  310975  309993   981.9    0.00  1070.6 16890.5    0.00 16890.5 16869.7   20.79
   16 327    30       0   31745  310972       0  310972  309992   979.5    0.00  1070.6 16890.5    0.00 16890.5 16869.6   20.82
   16 328    31       0   31745  310968       0  310968  309991   977.1    0.00  1070.6 16890.4    0.00 16890.4 16869.5   20.84
   16 329    32       0   31745  310965       0  310965  309990   975.4    0.00  1070.6 16890.3    0.00 16890.3 16869.4   20.86
   16 330    33       0   31745  310962       0  310962  309988   973.3    0.00  1070.6 16890.2    0.00 16890.2 16869.3   20.88
   16 331    34       0   31746  310958       0  310958  309987   970.8    0.00  1070.6 16890.1    0.00 16890.1 16869.2   20.91
   16 332    35       0   31746  310955       0  310955  309986   968.8    0.00  1070.6 16890.0    0.00 16890.0 16869.1   20.93
   16 333    36       0   31746  310953       0  310953  309985   967.8    0.00  1070.6 16890.0    0.00 16890.0 16869.0   20.94
   16 334    37       0   31746  310952       0  310952  309984   967.4    0.00  1070.6 16889.9    0.00 16889.9 16869.0   20.94
   16 335    38       0   31746  310951       0  310951  309984   967.2    0.00  1070.6 16889.9    0.00 16889.9 16869.0   20.95
   16 336    39       0   31746  310951       0  310951  309984   967.2    0.00  1070.6 16889.9    0.00 16889.9 16868.9   20.95
   16 337    40       0   31747  310951       0  310951  309984   967.2    0.00  1070.7 16889.9    0.00 16889.9 16868.9   20.95
   16 338    41       0   31747  310951       0  310951  309984   967.2    0.00  1070.7 16889.9    0.00 16889.9 16868.9   20.95
   16 339    42       0   31747  310951       0  310951  309984   967.2    0.00  1070.7 16889.9    0.00 16889.9 16868.9   20.95
   16 340    43       0   31747  310951       0  310951  309984   967.2    0.00  1070.7 16889.9    0.00 16889.9 16868.9   20.95
   16 341    44       0   31747  310951       0  310951  309984   967.1    0.00  1070.7 16889.9    0.00 16889.9 16868.9   20.95
   16 342    45       0   31747  310951       0  310951  309984   967.1    0.00  1070.7 16889.9    0.00 16889.9 16868.9   20.95
   16 343    46       0   31747  310951       0  310951  309984   967.1    0.00  1070.7 16889.9    0.00 16889.9 16868.9   20.95
   16 344    47       0   31747  310951       0  310951  309984   967.1    0.00  1070.7 16889.9    0.00 16889.9 16868.9   20.95
   16 345    48       0   31747  310951       0  310951  309984   967.1    0.00  1070.7 16889.9    0.00 16889.9 16868.9   20.95
   16 346    49       0   31749  310951       0  310951  309984   967.1    0.00  1070.7 16889.9    0.00 16889.9 16868.9   20.95
   16 347    50       0   31749  310951       0  310951  309984   967.1    0.00  1070.7 16889.9    0.00 16889.9 16868.9   20.95
   16 348    51       0   31749  310951       0  310951  309984   967.1    0.00  1070.7 16889.9    0.00 16889.9 16868.9   20.95
   16 349    52       0   31749  310951       0  310951  309984   967.0    0.00  1070.7 16889.8    0.00 16889.8 16868.9   20.95
   16 350    53       0   31749  310950       0  310950  309983   966.9    0.00  1070.7 16889.8    0.00 16889.8 16868.9   20.95
   16 351    54       0   31749  310950       0  310950  309983   966.9    0.00  1070.7 16889.8    0.00 16889.8 16868.9   20.95
   16 352    55       0   31749  310950       0  310950  309983   966.8    0.00  1070.7 16889.8    0.00 16889.8 16868.9   20.95
   16 353    56       0   31749  310950       0  310950  309983   966.8    0.00  1070.7 16889.8    0.00 16889.8 16868.8   20.95
   16 354    57       0   31749  310950       0  310950  309983   966.7    0.00  1070.7 16889.8    0.00 16889.8 16868.8   20.95
   16 355    58       0   31749  310950       0  310950  309983   966.7    0.00  1070.7 16889.8    0.00 16889.8 16868.8   20.95
   16 356    59       0   31749  310950       0  310950  309983   966.7    0.00  1070.7 16889.8    0.00 16889.8 16868.8   20.95
   16 357    60       0   31749  310950       0  310950  309983   966.7    0.00  1070.7 16889.8    0.00 16889.8 16868.8   20.95
   16 358    61       0   31749  310950       0  310950  309983   966.7    0.00  1070.7 16889.8    0.00 16889.8 16868.8   20.95
   16 359    62       0   31749  310950       0  310950  309983   966.7    0.00  1070.7 16889.8    0.00 16889.8 16868.8   20.95
   16 360    63       0   31749  310950       0  310950  309983   966.7    0.00  1070.7 16889.8    0.00 16889.8 16868.8   20.95
   16 361    64       0   31750  310949       0  310949  309983   966.7    0.00  1070.8 16889.8    0.00 16889.8 16868.8   20.95
   16 362    65       0   31750  310949       0  310949  309983   966.6    0.00  1070.8 16889.8    0.00 16889.8 16868.8   20.95
   16 363    66       0   31750  310949       0  310949  309982   966.4    0.00  1070.8 16889.7    0.00 16889.7 16868.8   20.95
   16 364    67       0   31750  310948       0  310948  309982   966.1    0.00  1070.8 16889.7    0.00 16889.7 16868.7   20.95
   16 365    68       0   31750  310948       0  310948  309982   966.0    0.00  1070.8 16889.7    0.00 16889.7 16868.7   20.95
   16 366    69       0   31750  310948       0  310948  309982   965.9    0.00  1070.8 16889.7    0.00 16889.7 16868.7   20.95
   17 001    70       0   31750  310948       0  310948  309982   965.9    0.00  1070.8 16889.7    0.00 16889.7 16868.7   20.95
   17 002    71       0   31752  310948       0  310948  309982   965.9    0.00  1070.8 16889.7    0.00 16889.7 16868.7   20.95
   17 003    72       0   31752  310948       0  310948  309982   965.9    0.00  1070.8 16889.7    0.00 16889.7 16868.7   20.95
   17 004    73       0   31752  310948       0  310948  309982   965.9    0.00  1070.8 16889.7    0.00 16889.7 16868.7   20.95
   17 005    74       0   31752  310948       0  310948  309982   965.9    0.00  1070.8 16889.7    0.00 16889.7 16868.7   20.95
   17 006    75       0   31761  310948       0  310948  309982   965.9    0.00  1071.2 16889.7    0.00 16889.7 16868.7   20.95
   17 007    76       0   31772  310948       0  310948  309982   965.9    0.00  1071.6 16889.7    0.00 16889.7 16868.7   20.95
   17 008    77       0   31772  310948       0  310948  309982   965.9    0.00  1071.6 16889.7    0.00 16889.7 16868.7   20.95
   17 009    78       0   31772  310948       0  310948  309982   965.9    0.00  1071.6 16889.7    0.00 16889.7 16868.7   20.95
   17 010    79       0   31772  310948       0  310948  309982   965.9    0.00  1071.6 16889.7    0.00 16889.7 16868.7   20.95
   17 011    80       0   31773  310948       0  310948  309982   965.9    0.00  1071.6 16889.7    0.00 16889.7 16868.7   20.95
   17 012    81       0   31783  310948       0  310948  309982   965.9    0.00  1072.0 16889.7    0.00 16889.7 16868.7   20.95
   17 013    82       0   31783  310948       0  310948  309982   965.9    0.00  1072.0 16889.7    0.00 16889.7 16868.7   20.95
   17 014    83       0   31783  310948       0  310948  309982   965.9    0.00  1072.0 16889.7    0.00 16889.7 16868.7   20.95
   17 015    84       0   31783  310948       0  310948  309982   965.9    0.00  1072.0 16889.7    0.00 16889.7 16868.7   20.95
   17 016    85       0   31783  310948       0  310948  309982   965.9    0.00  1072.0 16889.7    0.00 16889.7 16868.7   20.95
   17 017    86       0   31783  310948       0  310948  309982   965.9    0.00  1072.0 16889.7    0.00 16889.7 16868.7   20.95
   17 018    87       0   31783  310948       0  310948  309982   965.9    0.00  1072.0 16889.7    0.00 16889.7 16868.7   20.95
   17 019    88       0   31783  310948       0  310948  309982   965.9    0.00  1072.0 16889.7    0.00 16889.7 16868.7   20.95
   17 020    89       0   31831  310948       0  310948  309982   965.9    0.00  1073.9 16889.7    0.00 16889.7 16868.7   20.95
   17 021    90       0   31831  310948       0  310948  309982   965.9    0.00  1073.9 16889.7    0.00 16889.7 16868.7   20.95
   17 022    91       0   31831  310948       0  310948  309982   965.9    0.00  1073.9 16889.7    0.00 16889.7 16868.7   20.95
   17 023    92       0   31831  310948       0  310948  309982   965.9    0.00  1073.9 16889.7    0.00 16889.7 16868.7   20.95
   17 024    93       0   31831  310948       0  310948  309982   965.9    0.00  1073.9 16889.7    0.00 16889.7 16868.7   20.95
   17 025    94       0   31831  310948       0  310948  309982   965.9    0.00  1073.9 16889.7    0.00 16889.7 16868.7   20.95
   17 026    95       0   31831  310948       0  310948  309982   965.9    0.00  1073.9 16889.7    0.00 16889.7 16868.7   20.95
   17 027    96       0   31831  310948       0  310948  309982   965.9    0.00  1073.9 16889.7    0.00 16889.7 16868.7   20.95
   17 028    97       0   31831  310948       0  310948  309982   965.9    0.00  1073.9 16889.7    0.00 16889.7 16868.7   20.95
   17 029    98       0   31831  310948       0  310948  309982   965.9    0.00  1073.9 16889.7    0.00 16889.7 16868.7   20.95
   17 030    99       0   31831  310948       0  310948  309982   965.9    0.00  1073.9 16889.7    0.00 16889.7 16868.7   20.95
   17 031   100       0   31831  310948       0  310948  309982   965.9    0.00  1073.9 16889.7    0.00 16889.7 16868.7   20.95
   17 032   101       0   31831  310948       0  310948  309982   965.9    0.00  1073.9 16889.7    0.00 16889.7 16868.7   20.95
   17 033   102       0   31831  310948       0  310948  309982   965.9    0.00  1073.9 16889.7    0.00 16889.7 16868.7   20.95
   17 034   103       0   31831  310948       0  310948  309982   965.9    0.00  1073.9 16889.7    0.00 16889.7 16868.7   20.95
   17 035   104       0   31831  310948       0  310948  309982   965.9    0.00  1073.9 16889.7    0.00 16889.7 16868.7   20.95
   17 036   105       0   31831  310948       0  310948  309982   965.9    0.00  1073.9 16889.7    0.00 16889.7 16868.7   20.95
   17 037   106       0   31831  310948       0  310948  309982   965.9    0.00  1073.9 16889.7    0.00 16889.7 16868.7   20.95
   17 038   107       0   31831  310948       0  310948  309982   965.9    0.00  1073.9 16889.7    0.00 16889.7 16868.7   20.95
   17 039   108       0   31831  310947       0  310947  309982   965.9    0.00  1073.9 16889.7    0.00 16889.7 16868.7   20.95
   17 040   109       0   31831  310947       0  310947  309982   965.9    0.00  1073.9 16889.7    0.00 16889.7 16868.7   20.95
   17 041   110       0   31831  310947       0  310947  309982   965.9    0.00  1073.9 16889.7    0.00 16889.7 16868.7   20.95
   17 042   111       0   31831  310947       0  310947  309982   965.9    0.00  1073.9 16889.7    0.00 16889.7 16868.7   20.95
   17 043   112       0   31831  310947       0  310947  309982   965.9    0.00  1073.9 16889.7    0.00 16889.7 16868.7   20.95
   17 044   113       0   31831  310947       0  310947  309982   965.9    0.00  1073.9 16889.7    0.00 16889.7 16868.7   20.95
   17 045   114       0   31831  310947       0  310947  309982   965.9    0.00  1073.9 16889.7    0.00 16889.7 16868.7   20.95
   17 046   115       0   31831  310947       0  310947  309982   965.9    0.00  1073.9 16889.7    0.00 16889.7 16868.7   20.95
   17 047   116       0   31831  310947       0  310947  309982   965.9    0.00  1073.9 16889.7    0.00 16889.7 16868.7   20.95
   17 048   117       0   31831  310947       0  310947  309982   965.9    0.00  1073.9 16889.7    0.00 16889.7 16868.7   20.95
   17 049   118       0   31831  310947       0  310947  309982   965.9    0.00  1073.9 16889.7    0.00 16889.7 16868.7   20.95
   17 050   119       0   31831  310947       0  310947  309982   965.9    0.00  1073.9 16889.7    0.00 16889.7 16868.7   20.95
   17 051   120       0   31831  310947       0  310947  309982   965.9    0.00  1073.9 16889.7    0.00 16889.7 16868.7   20.95
   17 052   121       0   31831  310947       0  310947  309982   965.9    0.00  1073.9 16889.7    0.00 16889.7 16868.7   20.95
   17 053   122       0   31831  310947       0  310947  309982   965.9    0.00  1073.9 16889.7    0.00 16889.7 16868.7   20.95
   17 054   123       0   31831  310947       0  310947  309981   965.8    0.00  1073.9 16889.6    0.00 16889.6 16868.7   20.95
   17 055   124       0   31831  310943       0  310943  309981   962.5    0.00  1073.9 16889.6    0.00 16889.6 16868.6   20.97
   17 056   125       0   31832  310937       0  310937  309980   957.7    0.00  1073.9 16889.5    0.00 16889.5 16868.5   21.00
   17 057   126       0   31832  310933       0  310933  309979   954.2    0.00  1073.9 16889.5    0.00 16889.5 16868.5   21.03
   17 058   127       0   31832  310930       0  310930  309978   952.0    0.00  1073.9 16889.5    0.00 16889.5 16868.4   21.04
   17 059   128       0   31832  310930       0  310930  309978   951.6    0.00  1073.9 16889.4    0.00 16889.4 16868.4   21.04
   17 060   129       0   31832  310930       0  310930  309978   951.6    0.00  1073.9 16889.4    0.00 16889.4 16868.4   21.04
   17 061   130       0   31832  310930       0  310930  309978   951.6    0.00  1073.9 16889.4    0.00 16889.4 16868.4   21.04
   17 062   131       0   31832  310930       0  310930  309978   951.6    0.00  1073.9 16889.4    0.00 16889.4 16868.4   21.04
   17 063   132       0   31832  310930       0  310930  309978   951.6    0.00  1073.9 16889.4    0.00 16889.4 16868.4   21.04
   17 064   133       0   31832  310929       0  310929  309978   951.5    0.00  1073.9 16889.4    0.00 16889.4 16868.4   21.04
   17 065   134       0   31832  310929       0  310929  309978   951.3    0.00  1073.9 16889.4    0.00 16889.4 16868.4   21.04
   17 066   135       0   31832  310928       0  310928  309977   950.6    0.00  1073.9 16889.4    0.00 16889.4 16868.3   21.05
   17 067   136       0   31832  310928       0  310928  309977   950.5    0.00  1073.9 16889.4    0.00 16889.4 16868.3   21.05
   17 068   137       0   31832  310927       0  310927  309977   950.1    0.00  1073.9 16889.3    0.00 16889.3 16868.3   21.05
   17 069   138       0   31832  310927       0  310927  309977   950.0    0.00  1073.9 16889.3    0.00 16889.3 16868.3   21.05
   17 070   139       0   31832  310927       0  310927  309977   950.0    0.00  1073.9 16889.3    0.00 16889.3 16868.3   21.05
   17 071   140       0   31832  310927       0  310927  309977   949.9    0.00  1073.9 16889.3    0.00 16889.3 16868.3   21.05
   17 072   141       0   31832  310927       0  310927  309977   949.9    0.00  1073.9 16889.3    0.00 16889.3 16868.3   21.05
   17 073   142       0   31832  310927       0  310927  309977   949.9    0.00  1073.9 16889.3    0.00 16889.3 16868.3   21.05
   17 074   143       0   31832  310927       0  310927  309977   949.9    0.00  1073.9 16889.3    0.00 16889.3 16868.3   21.05
   17 075   144       0   31832  310927       0  310927  309977   949.9    0.00  1073.9 16889.3    0.00 16889.3 16868.3   21.05
   17 076   145       0   31832  310926       0  310926  309977   949.5    0.00  1073.9 16889.3    0.00 16889.3 16868.2   21.05
   17 077   146       0   31832  310924       0  310924  309976   947.5    0.00  1073.9 16889.3    0.00 16889.3 16868.2   21.07
   17 078   147       0   31832  310920       0  310920  309975   944.2    0.00  1073.9 16889.2    0.00 16889.2 16868.2   21.08
   17 079   148       0   31832  310913       0  310913  309975   938.8    0.00  1073.9 16889.2    0.00 16889.2 16868.1   21.11
   17 080   149       0   31832  310906       0  310906  309973   932.4    0.00  1073.9 16889.1    0.00 16889.1 16868.0   21.14
   17 081   150       0   31833  310897       0  310897  309972   925.3    0.00  1073.9 16889.0    0.00 16889.0 16867.8   21.17
   17 082   151       0   31833  310890       0  310890  309971   919.5    0.00  1073.9 16889.0    0.00 16889.0 16867.8   21.20
   17 083   152       0   31833  310883       0  310883  309969   913.7    0.00  1073.9 16888.9    0.00 16888.9 16867.7   21.22
   17 084   153       0   31833  310878       0  310878  309968   909.6    0.00  1073.9 16888.8    0.00 16888.8 16867.6   21.23
   17 085   154       0   31833  310874       0  310874  309968   906.4    0.00  1073.9 16888.8    0.00 16888.8 16867.5   21.25
   17 086   155       0   31833  310872       0  310872  309967   904.5    0.00  1073.9 16888.7    0.00 16888.7 16867.5   21.25
   17 087   156       0   31833  310869       0  310869  309966   902.2    0.00  1073.9 16888.7    0.00 16888.7 16867.4   21.26
   17 088   157       0   31833  310866       0  310866  309966   900.0    0.00  1073.9 16888.6    0.00 16888.6 16867.4   21.27
   17 089   158       0   31833  310861       0  310861  309964   896.7    0.00  1073.9 16888.6    0.00 16888.6 16867.3   21.28
   17 090   159       0   31833  310856       0  310856  309963   893.1    0.00  1073.9 16888.5    0.00 16888.5 16867.2   21.29
   17 091   160       0   31833  310849       0  310849  309961   888.2    0.00  1073.9 16888.4    0.00 16888.4 16867.0   21.31
   17 092   161       0   31833  310841       0  310841  309958   882.9    0.00  1073.9 16888.2    0.00 16888.2 16866.9   21.33
   17 093   162       0   31833  310832       0  310832  309955   877.3    0.00  1073.9 16888.0    0.00 16888.0 16866.7   21.34
   17 094   163       0   31833  310823       0  310823  309952   871.2    0.00  1073.9 16887.8    0.00 16887.8 16866.5   21.36
   17 095   164       0   31833  310815       0  310815  309949   866.0    0.00  1073.9 16887.7    0.00 16887.7 16866.3   21.37
   17 096   165       0   31833  310809       0  310809  309947   861.9    0.00  1073.9 16887.5    0.00 16887.5 16866.2   21.38
   17 097   166       0   31833  310804       0  310804  309945   859.2    0.00  1073.9 16887.4    0.00 16887.4 16866.1   21.38
   17 098   167       0   31833  310801       0  310801  309944   857.2    0.00  1073.9 16887.4    0.00 16887.4 16866.0   21.38
   17 099   168       0   31833  310798       0  310798  309942   855.3    0.00  1073.9 16887.3    0.00 16887.3 16865.9   21.39
   17 100   169       0   31833  310794       0  310794  309941   852.9    0.00  1073.9 16887.2    0.00 16887.2 16865.8   21.39
   17 101   170       0   31833  310789       0  310789  309938   850.1    0.00  1073.9 16887.1    0.00 16887.1 16865.7   21.40
   17 102   171       0   31833  310783       0  310783  309936   847.2    0.00  1073.9 16886.9    0.00 16886.9 16865.5   21.40
   17 103   172       0   31833  310778       0  310778  309934   844.5    0.00  1073.9 16886.8    0.00 16886.8 16865.4   21.40
   17 104   173       0   31833  310773       0  310773  309931   841.9    0.00  1073.9 16886.6    0.00 16886.6 16865.2   21.40
   17 105   174       0   31833  310769       0  310769  309929   839.8    0.00  1073.9 16886.5    0.00 16886.5 16865.1   21.41
   17 106   175       0   31833  310766       0  310766  309928   838.1    0.00  1073.9 16886.4    0.00 16886.4 16865.0   21.41
   17 107   176       0   31833  310762       0  310762  309926   836.3    0.00  1073.8 16886.3    0.00 16886.3 16864.9   21.41
   17 108   177       0   31833  310758       0  310758  309925   833.8    0.00  1073.8 16886.2    0.00 16886.2 16864.8   21.41
   17 109   178       0   31833  310756       0  310756  309924   832.4    0.00  1073.8 16886.2    0.00 16886.2 16864.8   21.40
   17 110   179       0   31833  310756       0  310756  309924   832.1    0.00  1073.8 16886.2    0.00 16886.2 16864.8   21.40
   17 111   180       0   31833  310756       0  310756  309924   832.1    0.00  1073.8 16886.2    0.00 16886.2 16864.8   21.40
   17 112   181       0   31833  310756       0  310756  309924   832.1    0.00  1073.8 16886.2    0.00 16886.2 16864.8   21.40
   17 113   182       0   31833  310756       0  310756  309924   832.1    0.00  1073.8 16886.2    0.00 16886.2 16864.8   21.40
   17 114   183       0   31833  310756       0  310756  309924   832.1    0.00  1073.8 16886.2    0.00 16886.2 16864.8   21.40
   17 115   184       0   31833  310756       0  310756  309924   832.1    0.00  1073.8 16886.2    0.00 16886.2 16864.8   21.40
   17 116   185       0   31833  310756       0  310756  309924   831.9    0.00  1073.8 16886.2    0.00 16886.2 16864.8   21.40
   17 117   186       0   31833  310756       0  310756  309924   831.9    0.00  1073.8 16886.2    0.00 16886.2 16864.8   21.40
   17 118   187       0   31833  310756       0  310756  309924   831.9    0.00  1073.8 16886.2    0.00 16886.2 16864.8   21.40
   17 119   188       0   31833  310756       0  310756  309924   831.9    0.00  1073.8 16886.2    0.00 16886.2 16864.8   21.40
   17 120   189       0   31833  310756       0  310756  309924   831.9    0.00  1073.8 16886.2    0.00 16886.2 16864.8   21.40
   17 121   190       0   31833  310756       0  310756  309924   831.9    0.00  1073.8 16886.2    0.00 16886.2 16864.8   21.40
   17 122   191       0   31833  310755       0  310755  309924   831.6    0.00  1073.8 16886.2    0.00 16886.2 16864.8   21.40
   17 123   192       0   31833  310753       0  310753  309923   830.4    0.00  1073.8 16886.1    0.00 16886.1 16864.7   21.40
   17 124   193       0   31832  310749       0  310749  309921   828.5    0.00  1073.8 16886.0    0.00 16886.0 16864.6   21.40
   17 125   194       0   31832  310745       0  310745  309919   826.2    0.00  1073.8 16885.9    0.00 16885.9 16864.5   21.40
   17 126   195       0   31832  310740       0  310740  309916   823.4    0.00  1073.8 16885.7    0.00 16885.7 16864.3   21.39
   17 127   196       0   31832  310734       0  310734  309913   820.1    0.00  1073.8 16885.6    0.00 16885.6 16864.2   21.39
   17 128   197       0   31831  310727       0  310727  309910   816.5    0.00  1073.8 16885.4    0.00 16885.4 16864.0   21.39
   17 129   198       0   31831  310720       0  310720  309907   812.3    0.00  1073.8 16885.2    0.00 16885.2 16863.8   21.38
   17 130   199       0   31831  310712       0  310712  309905   807.6    0.00  1073.8 16885.1    0.00 16885.1 16863.7   21.36
   17 131   200       0   31831  310706       0  310706  309903   803.1    0.00  1073.8 16884.9    0.00 16884.9 16863.6   21.35
   17 132   201       0   31831  310700       0  310700  309901   799.1    0.00  1073.8 16884.8    0.00 16884.8 16863.4   21.34
   17 133   202       0   31831  310693       0  310693  309898   795.1    0.00  1073.8 16884.6    0.00 16884.6 16863.3   21.33
   17 134   203       0   31831  310684       0  310684  309894   790.6    0.00  1073.8 16884.4    0.00 16884.4 16863.0   21.31
   17 135   204       0   31830  310675       0  310675  309889   785.5    0.00  1073.7 16884.1    0.00 16884.1 16862.8   21.29
   17 136   205       0   31830  310663       0  310663  309884   778.6    0.00  1073.7 16883.8    0.00 16883.8 16862.5   21.26
   17 137   206       0   31830  310649       0  310649  309879   770.2    0.00  1073.7 16883.4    0.00 16883.4 16862.2   21.23
   17 138   207       0   31830  310636       0  310636  309874   761.4    0.00  1073.7 16883.1    0.00 16883.1 16861.9   21.18
   17 139   208       0   31830  310622       0  310622  309869   752.7    0.00  1073.7 16882.8    0.00 16882.8 16861.6   21.13
   17 140   209       0   31829  310608       0  310608  309864   744.1    0.00  1073.7 16882.4    0.00 16882.4 16861.3   21.08
   17 141   210       0   31829  310595       0  310595  309859   735.5    0.00  1073.7 16882.1    0.00 16882.1 16861.0   21.02
   17 142   211       0   31829  310581       0  310581  309854   726.8    0.00  1073.7 16881.7    0.00 16881.7 16860.8   20.96
   17 143   212       0   31829  310568       0  310568  309850   718.2    0.00  1073.7 16881.4    0.00 16881.4 16860.5   20.89
   17 144   213       0   31829  310555       0  310555  309845   710.3    0.00  1073.7 16881.0    0.00 16881.0 16860.2   20.82
   17 145   214       0   31829  310544       0  310544  309841   702.7    0.00  1073.7 16880.7    0.00 16880.7 16860.0   20.76
   17 146   215       0   31829  310531       0  310531  309836   695.1    0.00  1073.7 16880.4    0.00 16880.4 16859.7   20.69
   17 147   216       0   31829  310519       0  310519  309831   687.6    0.00  1073.7 16880.0    0.00 16880.0 16859.4   20.61
   17 148   217       0   31829  310507       0  310507  309826   680.6    0.00  1073.7 16879.7    0.00 16879.7 16859.1   20.54
   17 149   218       0   31828  310495       0  310495  309821   674.0    0.00  1073.6 16879.3    0.00 16879.3 16858.8   20.47
   17 150   219       0   31828  310482       0  310482  309815   667.3    0.00  1073.6 16878.9    0.00 16878.9 16858.5   20.40
   17 151   220       0   31828  310465       0  310465  309808   657.4    0.00  1073.6 16878.4    0.00 16878.4 16858.1   20.29
   17 152   221       0   31828  310448       0  310448  309800   647.8    0.00  1073.6 16877.9    0.00 16877.9 16857.7   20.18
   17 153   222       0   31827  310432       0  310432  309793   638.9    0.00  1073.6 16877.3    0.00 16877.3 16857.2   20.08
   17 154   223       0   31827  310416       0  310416  309785   631.1    0.00  1073.6 16876.8    0.00 16876.8 16856.8   19.98
   17 155   224       0   31826  310400       0  310400  309778   622.4    0.00  1073.6 16876.2    0.00 16876.2 16856.4   19.86
   17 156   225       0   31826  310387       0  310387  309771   615.7    0.00  1073.6 16875.8    0.00 16875.8 16856.0   19.77
   17 157   226       0   31826  310374       0  310374  309765   609.1    0.00  1073.6 16875.3    0.00 16875.3 16855.6   19.68
   17 158   227       0   31826  310362       0  310362  309760   602.5    0.00  1073.5 16874.9    0.00 16874.9 16855.3   19.58
   17 159   228       0   31825  310352       0  310352  309756   596.5    0.00  1073.5 16874.6    0.00 16874.6 16855.1   19.49
   17 160   229       0   31825  310343       0  310343  309752   591.7    0.00  1073.5 16874.3    0.00 16874.3 16854.9   19.42
   17 161   230       0   31825  310334       0  310334  309748   586.5    0.00  1073.5 16874.0    0.00 16874.0 16854.6   19.33
   17 162   231       0   31825  310325       0  310325  309744   581.2    0.00  1073.5 16873.6    0.00 16873.6 16854.4   19.25
   17 163   232       0   31824  310316       0  310316  309740   576.0    0.00  1073.5 16873.3    0.00 16873.3 16854.1   19.16
   17 164   233       0   31824  310306       0  310306  309735   571.0    0.00  1073.5 16872.9    0.00 16872.9 16853.8   19.07
   17 165   234       0   31824  310296       0  310296  309730   566.3    0.00  1073.5 16872.5    0.00 16872.5 16853.5   18.99
   17 166   235       0   31823  310286       0  310286  309724   562.1    0.00  1073.5 16872.1    0.00 16872.1 16853.2   18.92
   17 167   236       0   31823  310276       0  310276  309719   557.4    0.00  1073.5 16871.7    0.00 16871.7 16852.9   18.83
   17 168   237       0   31823  310268       0  310268  309714   553.7    0.00  1073.4 16871.4    0.00 16871.4 16852.6   18.77
   17 169   238       0   31822  310260       0  310260  309709   550.7    0.00  1073.4 16871.0    0.00 16871.0 16852.3   18.71
   17 170   239       0   31822  310253       0  310253  309705   548.2    0.00  1073.4 16870.7    0.00 16870.7 16852.0   18.66
   17 171   240       0   31822  310246       0  310246  309700   546.0    0.00  1073.4 16870.4    0.00 16870.4 16851.7   18.62
   17 172   241       0   31822  310240       0  310240  309696   544.2    0.00  1073.4 16870.1    0.00 16870.1 16851.5   18.59
   17 173   242       0   31821  310234       0  310234  309691   542.7    0.00  1073.4 16869.7    0.00 16869.7 16851.2   18.56
   17 174   243       0   31821  310226       0  310226  309686   539.9    0.00  1073.4 16869.4    0.00 16869.4 16850.9   18.50
   17 175   244       0   31820  310219       0  310219  309681   537.8    0.00  1073.4 16869.0    0.00 16869.0 16850.5   18.46
   17 176   245       0   31820  310212       0  310212  309676   536.3    0.00  1073.4 16868.6    0.00 16868.6 16850.2   18.43
   17 177   246       0   31820  310206       0  310206  309671   534.7    0.00  1073.3 16868.3    0.00 16868.3 16849.9   18.40
   17 178   247       0   31819  310198       0  310198  309666   532.0    0.00  1073.3 16867.9    0.00 16867.9 16849.6   18.34
   17 179   248       0   31819  310189       0  310189  309661   527.5    0.00  1073.3 16867.5    0.00 16867.5 16849.3   18.25
   17 180   249       0   31818  310177       0  310177  309657   520.0    0.00  1073.3 16867.1    0.00 16867.1 16849.0   18.09
   17 181   250       0   31818  310164       0  310164  309652   512.2    0.00  1073.3 16866.6    0.00 16866.6 16848.7   17.93
   17 182   251       0   31818  310152       0  310152  309648   504.7    0.00  1073.3 16866.2    0.00 16866.2 16848.4   17.77
   17 183   252       0   31817  310142       0  310142  309643   499.0    0.00  1073.3 16865.8    0.00 16865.8 16848.1   17.64
   17 184   253       0   31817  310133       0  310133  309639   494.5    0.00  1073.2 16865.4    0.00 16865.4 16847.9   17.54
   17 185   254       0   31816  310126       0  310126  309635   490.8    0.00  1073.2 16865.1    0.00 16865.1 16847.6   17.45
   17 186   255       0   31816  310119       0  310119  309631   487.8    0.00  1073.2 16864.8    0.00 16864.8 16847.4   17.38
   17 187   256       0   31815  310113       0  310113  309627   485.9    0.00  1073.2 16864.5    0.00 16864.5 16847.1   17.34
   17 188   257       0   31815  310108       0  310108  309623   485.2    0.00  1073.2 16864.2    0.00 16864.2 16846.9   17.32
   17 189   258       0   31815  310103       0  310103  309619   484.5    0.00  1073.2 16863.9    0.00 16863.9 16846.6   17.30
   17 190   259       0   31814  310098       0  310098  309614   483.8    0.00  1073.2 16863.6    0.00 16863.6 16846.3   17.29
   17 191   260       0   31814  310085       0  310085  309609   476.1    0.00  1073.2 16863.1    0.00 16863.1 16846.0   17.10
   17 192   261       0   31813  310071       0  310071  309603   468.2    0.00  1073.1 16862.5    0.00 16862.5 16845.6   16.91
   17 193   262       0   31813  310058       0  310058  309597   460.5    0.00  1073.1 16862.0    0.00 16862.0 16845.3   16.72
   17 194   263       0   31812  310045       0  310045  309592   453.2    0.00  1073.1 16861.5    0.00 16861.5 16844.9   16.54
   17 195   264       0   31812  310033       0  310033  309586   446.8    0.00  1073.1 16861.0    0.00 16861.0 16844.6   16.38
   17 196   265       0   31811  310023       0  310023  309582   441.3    0.00  1073.1 16860.6    0.00 16860.6 16844.4   16.24
   17 197   266       0   31811  310013       0  310013  309577   436.1    0.00  1073.1 16860.2    0.00 16860.2 16844.1   16.10
   17 198   267       0   31810  310005       0  310005  309573   431.5    0.00  1073.1 16859.8    0.00 16859.8 16843.9   15.98
   17 199   268       0   31810  309996       0  309996  309569   427.4    0.00  1073.0 16859.5    0.00 16859.5 16843.6   15.87
   17 200   269       0   31809  309987       0  309987  309564   423.4    0.00  1073.0 16859.1    0.00 16859.1 16843.3   15.76
   17 201   270       0   31809  309978       0  309978  309559   419.3    0.00  1073.0 16858.7    0.00 16858.7 16843.0   15.65
   17 202   271       0   31808  309968       0  309968  309553   415.1    0.00  1073.0 16858.2    0.00 16858.2 16842.7   15.53
   17 203   272       0   31807  309958       0  309958  309547   411.0    0.00  1073.0 16857.8    0.00 16857.8 16842.4   15.42
   17 204   273       0   31806  309947       0  309947  309541   406.2    0.00  1072.9 16857.3    0.00 16857.3 16842.0   15.28
   17 205   274       0   31805  309936       0  309936  309534   401.8    0.00  1072.9 16856.8    0.00 16856.8 16841.6   15.16
   17 206   275       0   31804  309926       0  309926  309529   397.3    0.00  1072.9 16856.3    0.00 16856.3 16841.3   15.03
   17 207   276       0   31804  309916       0  309916  309523   393.2    0.00  1072.9 16855.9    0.00 16855.9 16841.0   14.91
   17 208   277       0   31803  309907       0  309907  309518   389.5    0.00  1072.8 16855.5    0.00 16855.5 16840.7   14.81
   17 209   278       0   31803  309899       0  309899  309513   386.0    0.00  1072.8 16855.1    0.00 16855.1 16840.4   14.71
   17 210   279       0   31802  309889       0  309889  309507   382.0    0.00  1072.8 16854.7    0.00 16854.7 16840.1   14.60
   17 211   280       0   31802  309879       0  309879  309502   377.5    0.00  1072.8 16854.3    0.00 16854.3 16839.8   14.47
   17 212   281       0   31801  309867       0  309867  309495   372.3    0.00  1072.8 16853.8    0.00 16853.8 16839.5   14.33
   17 213   282       0   31800  309854       0  309854  309487   366.7    0.00  1072.7 16853.2    0.00 16853.2 16839.1   14.18
   17 214   283       0   31799  309839       0  309839  309479   360.4    0.00  1072.7 16852.6    0.00 16852.6 16838.6   13.99
   17 215   284       0   31798  309824       0  309824  309470   353.8    0.00  1072.7 16851.9    0.00 16851.9 16838.1   13.80
   17 216   285       0   31797  309808       0  309808  309460   347.3    0.00  1072.7 16851.3    0.00 16851.3 16837.6   13.61
   17 217   286       0   31796  309792       0  309792  309451   340.8    0.00  1072.6 16850.6    0.00 16850.6 16837.2   13.41
   17 218   287       0   31795  309776       0  309776  309441   334.8    0.00  1072.6 16849.9    0.00 16849.9 16836.7   13.23
   17 219   288       0   31794  309762       0  309762  309432   329.7    0.00  1072.6 16849.3    0.00 16849.3 16836.2   13.07

*DSSAT Cropping System Model Ver. 4.8.5.000 -release  NOV 27, 2025 15:48:48

*RUN   3        : 3                         WHAPS048 TUDU1701    3
 MODEL          : WHAPS048 - Wheat
 EXPERIMENT     : TUDU1701 WH
 DATA PATH      :
 TREATMENT  3   : 3                         WHAPS048
  
@YEAR DOY   DAS    OMAC    SCDD    SOCD    SC0D    SCTD   SOMCT    LCTD    ONAC    SNDD    SOND    SN0D    SNTD   SOMNT    LNTD
   16 297     0       0   31829  311106       0  311106  310026  1080.0    0.00  1073.9 16892.2    0.00 16892.2 16872.7   19.50
   16 298     1       0   31561  311088       0  311088  310023  1064.9    0.00  1063.6 16892.1    0.00 16892.1 16872.4   19.73
   16 299     2       0   31567  311069       0  311069  310020  1049.8    0.00  1063.8 16892.1    0.00 16892.1 16872.1   19.94
   16 300     3       0   31567  311052       0  311052  310017  1035.1    0.00  1063.8 16892.0    0.00 16892.0 16871.8   20.13
   16 301     4       0   31568  311037       0  311037  310014  1022.4    0.00  1063.8 16891.9    0.00 16891.9 16871.6   20.28
   16 302     5       0   31568  311024       0  311024  310012  1012.3    0.00  1063.8 16891.8    0.00 16891.8 16871.4   20.40
   16 303     6       0   31568  311015       0  311015  310010  1005.1    0.00  1063.8 16891.7    0.00 16891.7 16871.2   20.48
   16 304     7       0   31568  311008       0  311008  310008  1000.1    0.00  1063.8 16891.6    0.00 16891.6 16871.1   20.54
   16 305     8       0   31568  311004       0  311004  310007   997.1    0.00  1063.8 16891.5    0.00 16891.5 16871.0   20.57
   16 306     9       0   31568  311001       0  311001  310005   995.1    0.00  1063.8 16891.5    0.00 16891.5 16870.8   20.60
   16 307    10       0   31568  310998       0  310998  310004   993.9    0.00  1063.8 16891.4    0.00 16891.4 16870.8   20.62
   16 308    11       0   31568  310996       0  310996  310003   992.7    0.00  1063.8 16891.3    0.00 16891.3 16870.7   20.64
   16 309    12       0   31568  310994       0  310994  310003   991.8    0.00  1063.8 16891.3    0.00 16891.3 16870.6   20.66
   16 310    13       0   31613  310993       0  310993  310002   991.1    0.00  1065.5 16891.2    0.00 16891.2 16870.5   20.67
   16 311    14       0   31644  310991       0  310991  310001   990.3    0.00  1066.7 16891.1    0.00 16891.1 16870.5   20.68
   16 312    15       0   31644  310990       0  310990  310000   989.5    0.00  1066.7 16891.1    0.00 16891.1 16870.4   20.70
   16 313    16       0   31644  310989       0  310989  310000   988.9    0.00  1066.7 16891.0    0.00 16891.0 16870.3   20.70
   16 314    17       0   31654  310988       0  310988  309999   988.5    0.00  1067.1 16891.0    0.00 16891.0 16870.3   20.71
   16 315    18       0   31676  310987       0  310987  309999   988.1    0.00  1067.9 16891.0    0.00 16891.0 16870.2   20.71
   16 316    19       0   31690  310986       0  310986  309998   987.9    0.00  1068.5 16890.9    0.00 16890.9 16870.2   20.72
   16 317    20       0   31690  310986       0  310986  309998   987.7    0.00  1068.5 16890.9    0.00 16890.9 16870.2   20.72
   16 318    21       0   31690  310985       0  310985  309998   987.4    0.00  1068.5 16890.9    0.00 16890.9 16870.1   20.72
   16 319    22       0   31690  310985       0  310985  309998   987.2    0.00  1068.5 16890.8    0.00 16890.8 16870.1   20.73
   16 320    23       0   31703  310985       0  310985  309997   987.1    0.00  1069.0 16890.8    0.00 16890.8 16870.1   20.73
   16 321    24       0   31721  310984       0  310984  309997   987.0    0.00  1069.7 16890.8    0.00 16890.8 16870.1   20.73
   16 322    25       0   31721  310984       0  310984  309997   986.8    0.00  1069.7 16890.8    0.00 16890.8 16870.1   20.73
   16 323    26       0   31733  310983       0  310983  309997   986.5    0.00  1070.1 16890.8    0.00 16890.8 16870.0   20.73
   16 324    27       0   31745  310981       0  310981  309996   985.6    0.00  1070.6 16890.7    0.00 16890.7 16869.9   20.75
   16 325    28       0   31745  310979       0  310979  309995   984.1    0.00  1070.6 16890.6    0.00 16890.6 16869.8   20.77
   16 326    29       0   31745  310975       0  310975  309993   981.9    0.00  1070.6 16890.5    0.00 16890.5 16869.7   20.79
   16 327    30       0   31745  310972       0  310972  309992   979.5    0.00  1070.6 16890.5    0.00 16890.5 16869.6   20.82
   16 328    31       0   31745  310968       0  310968  309991   977.1    0.00  1070.6 16890.4    0.00 16890.4 16869.5   20.84
   16 329    32       0   31745  310965       0  310965  309990   975.4    0.00  1070.6 16890.3    0.00 16890.3 16869.4   20.86
   16 330    33       0   31745  310962       0  310962  309988   973.3    0.00  1070.6 16890.2    0.00 16890.2 16869.3   20.88
   16 331    34       0   31746  310958       0  310958  309987   970.8    0.00  1070.6 16890.1    0.00 16890.1 16869.2   20.91
   16 332    35       0   31746  310955       0  310955  309986   968.8    0.00  1070.6 16890.0    0.00 16890.0 16869.1   20.93
   16 333    36       0   31746  310953       0  310953  309985   967.8    0.00  1070.6 16890.0    0.00 16890.0 16869.0   20.94
[...]
   17 064   133       0   31831  310932       0  310932  309977   954.9    0.00  1073.9 16889.4    0.00 16889.4 16868.4   21.03
   17 065   134       0   31831  310932       0  310932  309977   954.7    0.00  1073.9 16889.4    0.00 16889.4 16868.3   21.03
   17 066   135       0   31831  310931       0  310931  309977   954.2    0.00  1073.9 16889.4    0.00 16889.4 16868.3   21.04
   17 067   136       0   31831  310931       0  310931  309977   954.0    0.00  1073.9 16889.3    0.00 16889.3 16868.3   21.04
   17 068   137       0   31831  310930       0  310930  309976   953.8    0.00  1073.9 16889.3    0.00 16889.3 16868.3   21.04
   17 069   138       0   31831  310930       0  310930  309976   953.6    0.00  1073.9 16889.3    0.00 16889.3 16868.3   21.04
   17 070   139       0   31831  310930       0  310930  309976   953.6    0.00  1073.9 16889.3    0.00 16889.3 16868.3   21.04
   17 071   140       0   31831  310930       0  310930  309976   953.6    0.00  1073.9 16889.3    0.00 16889.3 16868.3   21.04
   17 072   141       0   31831  310930       0  310930  309976   953.6    0.00  1073.9 16889.3    0.00 16889.3 16868.2   21.04
   17 073   142       0   31831  310930       0  310930  309976   953.5    0.00  1073.9 16889.3    0.00 16889.3 16868.2   21.04
   17 074   143       0   31831  310930       0  310930  309976   953.5    0.00  1073.9 16889.3    0.00 16889.3 16868.2   21.04
   17 075   144       0   31831  310930       0  310930  309976   953.5    0.00  1073.9 16889.3    0.00 16889.3 16868.2   21.04
   17 076   145       0   31831  310929       0  310929  309976   953.2    0.00  1073.9 16889.3    0.00 16889.3 16868.2   21.04
   17 077   146       0   31831  310927       0  310927  309975   951.7    0.00  1073.9 16889.2    0.00 16889.2 16868.2   21.05
   17 078   147       0   31831  310924       0  310924  309974   949.2    0.00  1073.9 16889.2    0.00 16889.2 16868.1   21.07
   17 079   148       0   31831  310918       0  310918  309973   945.1    0.00  1073.9 16889.1    0.00 16889.1 16868.0   21.10
   17 080   149       0   31832  310912       0  310912  309972   940.2    0.00  1073.9 16889.1    0.00 16889.1 16867.9   21.13
   17 081   150       0   31832  310905       0  310905  309970   935.0    0.00  1073.9 16889.0    0.00 16889.0 16867.8   21.16
   17 082   151       0   31832  310899       0  310899  309968   930.7    0.00  1073.9 16888.9    0.00 16888.9 16867.7   21.18
   17 083   152       0   31832  310893       0  310893  309967   926.3    0.00  1073.9 16888.8    0.00 16888.8 16867.6   21.20
   17 084   153       0   31832  310889       0  310889  309966   922.9    0.00  1073.9 16888.7    0.00 16888.7 16867.5   21.22
   17 085   154       0   31832  310885       0  310885  309965   920.2    0.00  1073.9 16888.7    0.00 16888.7 16867.4   21.23
   17 086   155       0   31832  310883       0  310883  309964   918.5    0.00  1073.9 16888.6    0.00 16888.6 16867.4   21.24
   17 087   156       0   31832  310880       0  310880  309963   916.5    0.00  1073.9 16888.6    0.00 16888.6 16867.4   21.25
   17 088   157       0   31832  310877       0  310877  309963   914.4    0.00  1073.9 16888.6    0.00 16888.6 16867.3   21.26
   17 089   158       0   31832  310873       0  310873  309961   911.2    0.00  1073.9 16888.5    0.00 16888.5 16867.2   21.27
   17 090   159       0   31832  310867       0  310867  309960   907.6    0.00  1073.9 16888.4    0.00 16888.4 16867.1   21.29
   17 091   160       0   31832  310860       0  310860  309958   902.3    0.00  1073.9 16888.3    0.00 16888.3 16867.0   21.31
   17 092   161       0   31832  310851       0  310851  309955   896.3    0.00  1073.9 16888.1    0.00 16888.1 16866.8   21.33
   17 093   162       0   31832  310841       0  310841  309952   889.5    0.00  1073.8 16888.0    0.00 16888.0 16866.6   21.35
   17 094   163       0   31832  310831       0  310831  309949   882.4    0.00  1073.8 16887.8    0.00 16887.8 16866.4   21.37
   17 095   164       0   31832  310822       0  310822  309946   876.0    0.00  1073.8 16887.6    0.00 16887.6 16866.2   21.39
   17 096   165       0   31832  310815       0  310815  309944   870.9    0.00  1073.8 16887.5    0.00 16887.5 16866.1   21.39
   17 097   166       0   31832  310809       0  310809  309942   867.5    0.00  1073.8 16887.4    0.00 16887.4 16866.0   21.40
   17 098   167       0   31832  310806       0  310806  309941   864.9    0.00  1073.8 16887.3    0.00 16887.3 16865.9   21.40
   17 099   168       0   31832  310802       0  310802  309939   862.4    0.00  1073.8 16887.2    0.00 16887.2 16865.8   21.41
   17 100   169       0   31832  310797       0  310797  309938   859.1    0.00  1073.8 16887.1    0.00 16887.1 16865.7   21.41
   17 101   170       0   31832  310790       0  310790  309935   855.0    0.00  1073.8 16887.0    0.00 16887.0 16865.6   21.41
   17 102   171       0   31831  310783       0  310783  309933   850.6    0.00  1073.8 16886.8    0.00 16886.8 16865.4   21.41
   17 103   172       0   31831  310777       0  310777  309930   846.4    0.00  1073.8 16886.7    0.00 16886.7 16865.2   21.41
   17 104   173       0   31831  310770       0  310770  309928   842.4    0.00  1073.8 16886.5    0.00 16886.5 16865.1   21.41
   17 105   174       0   31831  310765       0  310765  309926   839.0    0.00  1073.8 16886.4    0.00 16886.4 16865.0   21.41
   17 106   175       0   31831  310760       0  310760  309924   836.2    0.00  1073.8 16886.3    0.00 16886.3 16864.9   21.41
   17 107   176       0   31831  310755       0  310755  309922   833.4    0.00  1073.8 16886.2    0.00 16886.2 16864.8   21.40
   17 108   177       0   31831  310751       0  310751  309921   830.2    0.00  1073.8 16886.1    0.00 16886.1 16864.7   21.40
   17 109   178       0   31831  310748       0  310748  309920   828.5    0.00  1073.8 16886.0    0.00 16886.0 16864.6   21.40
   17 110   179       0   31831  310748       0  310748  309920   828.2    0.00  1073.8 16886.0    0.00 16886.0 16864.6   21.40
   17 111   180       0   31831  310748       0  310748  309920   828.2    0.00  1073.8 16886.0    0.00 16886.0 16864.6   21.40
   17 112   181       0   31831  310748       0  310748  309920   828.2    0.00  1073.8 16886.0    0.00 16886.0 16864.6   21.40
   17 113   182       0   31831  310748       0  310748  309920   828.2    0.00  1073.8 16886.0    0.00 16886.0 16864.6   21.40
   17 114   183       0   31831  310748       0  310748  309920   828.2    0.00  1073.8 16886.0    0.00 16886.0 16864.6   21.40
   17 115   184       0   31831  310748       0  310748  309920   828.2    0.00  1073.8 16886.0    0.00 16886.0 16864.6   21.40
   17 116   185       0   31831  310748       0  310748  309920   827.9    0.00  1073.8 16886.0    0.00 16886.0 16864.6   21.40
   17 117   186       0   31831  310748       0  310748  309920   827.9    0.00  1073.8 16886.0    0.00 16886.0 16864.6   21.40
   17 118   187       0   31831  310748       0  310748  309920   827.9    0.00  1073.8 16886.0    0.00 16886.0 16864.6   21.40
   17 119   188       0   31831  310748       0  310748  309920   827.9    0.00  1073.8 16886.0    0.00 16886.0 16864.6   21.40
   17 120   189       0   31831  310748       0  310748  309920   827.9    0.00  1073.8 16886.0    0.00 16886.0 16864.6   21.40
   17 121   190       0   31831  310748       0  310748  309920   827.9    0.00  1073.8 16886.0    0.00 16886.0 16864.6   21.40
   17 122   191       0   31831  310747       0  310747  309920   827.6    0.00  1073.8 16886.0    0.00 16886.0 16864.6   21.40
   17 123   192       0   31831  310745       0  310745  309919   826.0    0.00  1073.8 16885.9    0.00 16885.9 16864.6   21.39
   17 124   193       0   31831  310740       0  310740  309917   823.1    0.00  1073.8 16885.8    0.00 16885.8 16864.5   21.39
   17 125   194       0   31831  310735       0  310735  309915   819.7    0.00  1073.8 16885.7    0.00 16885.7 16864.4   21.38
   17 126   195       0   31831  310729       0  310729  309913   815.6    0.00  1073.8 16885.6    0.00 16885.6 16864.2   21.37
   17 127   196       0   31831  310721       0  310721  309911   810.6    0.00  1073.8 16885.4    0.00 16885.4 16864.1   21.36
   17 128   197       0   31831  310713       0  310713  309908   804.9    0.00  1073.8 16885.2    0.00 16885.2 16863.9   21.34
   17 129   198       0   31831  310705       0  310705  309905   799.7    0.00  1073.8 16885.1    0.00 16885.1 16863.7   21.32
   17 130   199       0   31831  310697       0  310697  309903   794.3    0.00  1073.8 16884.9    0.00 16884.9 16863.6   21.31
   17 131   200       0   31831  310690       0  310690  309901   789.2    0.00  1073.8 16884.8    0.00 16884.8 16863.5   21.29
   17 132   201       0   31831  310683       0  310683  309899   784.2    0.00  1073.8 16884.6    0.00 16884.6 16863.3   21.27
   17 133   202       0   31831  310675       0  310675  309896   778.6    0.00  1073.8 16884.4    0.00 16884.4 16863.2   21.24
   17 134   203       0   31831  310665       0  310665  309893   771.8    0.00  1073.8 16884.2    0.00 16884.2 16863.0   21.21
   17 135   204       0   31831  310653       0  310653  309888   764.7    0.00  1073.8 16883.9    0.00 16883.9 16862.7   21.17
   17 136   205       0   31831  310640       0  310640  309884   756.1    0.00  1073.7 16883.6    0.00 16883.6 16862.5   21.12
   17 137   206       0   31831  310626       0  310626  309879   746.3    0.00  1073.7 16883.2    0.00 16883.2 16862.2   21.07
   17 138   207       0   31831  310611       0  310611  309875   736.3    0.00  1073.7 16882.9    0.00 16882.9 16861.9   21.00
   17 139   208       0   31831  310596       0  310596  309870   725.7    0.00  1073.7 16882.6    0.00 16882.6 16861.6   20.92
   17 140   209       0   31831  310580       0  310580  309865   715.4    0.00  1073.7 16882.2    0.00 16882.2 16861.3   20.84
   17 141   210       0   31831  310566       0  310566  309860   706.0    0.00  1073.7 16881.8    0.00 16881.8 16861.0   20.77
   17 142   211       0   31830  310553       0  310553  309855   697.5    0.00  1073.7 16881.5    0.00 16881.5 16860.8   20.69
   17 143   212       0   31830  310540       0  310540  309851   689.5    0.00  1073.7 16881.1    0.00 16881.1 16860.5   20.61
   17 144   213       0   31830  310528       0  310528  309846   682.2    0.00  1073.7 16880.8    0.00 16880.8 16860.2   20.54
   17 145   214       0   31830  310517       0  310517  309842   675.6    0.00  1073.7 16880.5    0.00 16880.5 16860.0   20.47
   17 146   215       0   31830  310506       0  310506  309837   668.9    0.00  1073.7 16880.1    0.00 16880.1 16859.7   20.39
   17 147   216       0   31830  310494       0  310494  309832   662.3    0.00  1073.7 16879.8    0.00 16879.8 16859.4   20.32
   17 148   217       0   31830  310483       0  310483  309827   655.7    0.00  1073.7 16879.4    0.00 16879.4 16859.2   20.24
   17 149   218       0   31829  310471       0  310471  309822   649.2    0.00  1073.7 16879.0    0.00 16879.0 16858.9   20.16
   17 150   219       0   31829  310458       0  310458  309815   642.4    0.00  1073.7 16878.6    0.00 16878.6 16858.5   20.07
   17 151   220       0   31829  310441       0  310441  309808   632.4    0.00  1073.7 16878.1    0.00 16878.1 16858.1   19.95
   17 152   221       0   31828  310423       0  310423  309800   622.3    0.00  1073.6 16877.5    0.00 16877.5 16857.7   19.81
   17 153   222       0   31828  310405       0  310405  309792   612.6    0.00  1073.6 16876.9    0.00 16876.9 16857.2   19.68
   17 154   223       0   31827  310387       0  310387  309784   603.5    0.00  1073.6 16876.3    0.00 16876.3 16856.7   19.55
   17 155   224       0   31827  310369       0  310369  309776   593.4    0.00  1073.6 16875.7    0.00 16875.7 16856.3   19.41
   17 156   225       0   31827  310353       0  310353  309768   585.3    0.00  1073.6 16875.2    0.00 16875.2 16855.9   19.29
   17 157   226       0   31826  310339       0  310339  309761   577.6    0.00  1073.6 16874.7    0.00 16874.7 16855.5   19.17
   17 158   227       0   31826  310325       0  310325  309755   570.3    0.00  1073.6 16874.2    0.00 16874.2 16855.1   19.05
   17 159   228       0   31826  310313       0  310313  309750   563.7    0.00  1073.5 16873.8    0.00 16873.8 16854.9   18.94
   17 160   229       0   31825  310303       0  310303  309745   558.2    0.00  1073.5 16873.4    0.00 16873.4 16854.6   18.85
   17 161   230       0   31825  310293       0  310293  309741   552.4    0.00  1073.5 16873.1    0.00 16873.1 16854.3   18.74
   17 162   231       0   31825  310282       0  310282  309736   546.3    0.00  1073.5 16872.7    0.00 16872.7 16854.1   18.63
   17 163   232       0   31825  310271       0  310271  309731   540.1    0.00  1073.5 16872.3    0.00 16872.3 16853.8   18.52
   17 164   233       0   31824  310258       0  310258  309725   533.4    0.00  1073.5 16871.9    0.00 16871.9 16853.5   18.40
   17 165   234       0   31824  310245       0  310245  309718   526.9    0.00  1073.5 16871.4    0.00 16871.4 16853.1   18.27
   17 166   235       0   31823  310232       0  310232  309712   520.7    0.00  1073.5 16870.9    0.00 16870.9 16852.7   18.15
   17 167   236       0   31823  310219       0  310219  309705   513.8    0.00  1073.5 16870.4    0.00 16870.4 16852.3   18.01
   17 168   237       0   31822  310206       0  310206  309698   507.7    0.00  1073.4 16869.9    0.00 16869.9 16852.0   17.89
   17 169   238       0   31822  310194       0  310194  309692   502.3    0.00  1073.4 16869.4    0.00 16869.4 16851.6   17.78
   17 170   239       0   31821  310183       0  310183  309686   497.6    0.00  1073.4 16869.0    0.00 16869.0 16851.3   17.68
   17 171   240       0   31821  310173       0  310173  309680   493.1    0.00  1073.4 16868.5    0.00 16868.5 16850.9   17.58
   17 172   241       0   31820  310162       0  310162  309673   488.9    0.00  1073.4 16868.1    0.00 16868.1 16850.6   17.49
   17 173   242       0   31820  310152       0  310152  309667   484.8    0.00  1073.4 16867.6    0.00 16867.6 16850.2   17.40
   17 174   243       0   31819  310139       0  310139  309660   479.2    0.00  1073.4 16867.1    0.00 16867.1 16849.8   17.28
   17 175   244       0   31819  310125       0  310125  309652   473.8    0.00  1073.3 16866.5    0.00 16866.5 16849.3   17.16
   17 176   245       0   31818  310113       0  310113  309644   468.8    0.00  1073.3 16865.9    0.00 16865.9 16848.9   17.05
   17 177   246       0   31818  310101       0  310101  309636   464.1    0.00  1073.3 16865.4    0.00 16865.4 16848.4   16.94
   17 178   247       0   31817  310088       0  310088  309629   458.5    0.00  1073.3 16864.8    0.00 16864.8 16848.0   16.81
   17 179   248       0   31817  310074       0  310074  309622   452.4    0.00  1073.3 16864.3    0.00 16864.3 16847.6   16.67
   17 180   249       0   31816  310060       0  310060  309615   445.0    0.00  1073.2 16863.7    0.00 16863.7 16847.2   16.49
   17 181   250       0   31815  310045       0  310045  309608   437.7    0.00  1073.2 16863.1    0.00 16863.1 16846.8   16.31
   17 182   251       0   31815  310031       0  310031  309601   430.0    0.00  1073.2 16862.5    0.00 16862.5 16846.4   16.12
   17 183   252       0   31814  310017       0  310017  309594   423.3    0.00  1073.2 16862.0    0.00 16862.0 16846.0   15.95
   17 184   253       0   31814  310005       0  310005  309588   417.5    0.00  1073.2 16861.5    0.00 16861.5 16845.7   15.80
   17 185   254       0   31813  309994       0  309994  309582   412.3    0.00  1073.2 16861.0    0.00 16861.0 16845.3   15.66
   17 186   255       0   31813  309983       0  309983  309576   407.4    0.00  1073.1 16860.5    0.00 16860.5 16845.0   15.53
   17 187   256       0   31812  309972       0  309972  309570   402.6    0.00  1073.1 16860.1    0.00 16860.1 16844.7   15.40
   17 188   257       0   31811  309961       0  309961  309563   397.9    0.00  1073.1 16859.5    0.00 16859.5 16844.3   15.27
   17 189   258       0   31811  309949       0  309949  309556   393.1    0.00  1073.1 16859.0    0.00 16859.0 16843.9   15.14
   17 190   259       0   31810  309936       0  309936  309548   388.2    0.00  1073.1 16858.4    0.00 16858.4 16843.4   15.00
   17 191   260       0   31809  309922       0  309922  309540   382.1    0.00  1073.0 16857.8    0.00 16857.8 16843.0   14.83
   17 192   261       0   31808  309907       0  309907  309531   375.8    0.00  1073.0 16857.1    0.00 16857.1 16842.5   14.65
   17 193   262       0   31807  309892       0  309892  309522   369.6    0.00  1073.0 16856.5    0.00 16856.5 16842.0   14.47
   17 194   263       0   31806  309878       0  309878  309514   363.6    0.00  1073.0 16855.9    0.00 16855.9 16841.6   14.30
   17 195   264       0   31806  309864       0  309864  309506   357.7    0.00  1072.9 16855.3    0.00 16855.3 16841.2   14.13
   17 196   265       0   31805  309852       0  309852  309499   353.1    0.00  1072.9 16854.8    0.00 16854.8 16840.8   13.99
   17 197   266       0   31804  309841       0  309841  309493   348.5    0.00  1072.9 16854.3    0.00 16854.3 16840.4   13.85
   17 198   267       0   31804  309831       0  309831  309487   344.3    0.00  1072.9 16853.8    0.00 16853.8 16840.1   13.73
   17 199   268       0   31803  309821       0  309821  309480   340.4    0.00  1072.9 16853.4    0.00 16853.4 16839.8   13.61
   17 200   269       0   31802  309810       0  309810  309474   336.4    0.00  1072.8 16852.9    0.00 16852.9 16839.4   13.49
   17 201   270       0   31802  309798       0  309798  309466   332.1    0.00  1072.8 16852.3    0.00 16852.3 16839.0   13.35
   17 202   271       0   31801  309785       0  309785  309458   327.7    0.00  1072.8 16851.8    0.00 16851.8 16838.6   13.21
   17 203   272       0   31800  309772       0  309772  309449   323.2    0.00  1072.8 16851.2    0.00 16851.2 16838.1   13.07
   17 204   273       0   31799  309758       0  309758  309440   318.2    0.00  1072.7 16850.5    0.00 16850.5 16837.6   12.92
   17 205   274       0   31798  309744       0  309744  309430   313.5    0.00  1072.7 16849.9    0.00 16849.9 16837.1   12.77
   17 206   275       0   31797  309731       0  309731  309422   308.9    0.00  1072.7 16849.3    0.00 16849.3 16836.7   12.62
   17 207   276       0   31796  309720       0  309720  309414   305.3    0.00  1072.7 16848.8    0.00 16848.8 16836.3   12.50
   17 208   277       0   31795  309710       0  309710  309407   302.2    0.00  1072.6 16848.3    0.00 16848.3 16835.9   12.40
   17 209   278       0   31795  309700       0  309700  309401   299.4    0.00  1072.6 16847.9    0.00 16847.9 16835.5   12.31
   17 210   279       0   31794  309691       0  309691  309394   296.2    0.00  1072.6 16847.4    0.00 16847.4 16835.2   12.21
   17 211   280       0   31794  309680       0  309680  309387   292.5    0.00  1072.6 16846.9    0.00 16846.9 16834.8   12.09
   17 212   281       0   31793  309667       0  309667  309379   288.3    0.00  1072.6 16846.3    0.00 16846.3 16834.4   11.95
   17 213   282       0   31792  309653       0  309653  309369   283.8    0.00  1072.5 16845.7    0.00 16845.7 16833.9   11.80
   17 214   283       0   31791  309638       0  309638  309359   278.7    0.00  1072.5 16845.0    0.00 16845.0 16833.3   11.63
   17 215   284       0   31790  309621       0  309621  309347   273.4    0.00  1072.5 16844.2    0.00 16844.2 16832.7   11.45
   17 216   285       0   31788  309604       0  309604  309336   268.1    0.00  1072.4 16843.4    0.00 16843.4 16832.1   11.27
   17 217   286       0   31787  309587       0  309587  309324   262.8    0.00  1072.4 16842.6    0.00 16842.6 16831.5   11.09
   17 218   287       0   31786  309570       0  309570  309312   257.8    0.00  1072.4 16841.8    0.00 16841.8 16830.9   10.91
   17 219   288       0   31785  309555       0  309555  309301   253.5    0.00  1072.3 16841.1    0.00 16841.1 16830.3   10.77
