*Soil Inorganic Nitrogen daily output file

*DSSAT Cropping System Model Ver. 4.8.5.000 -release  NOV 27, 2025 15:48:48

*RUN   1        : 1                         WHAPS048 TUDU1701    1
 MODEL          : WHAPS048 - Wheat
 EXPERIMENT     : TUDU1701 WH
 DATA PATH      :
 TREATMENT  1   : 1                         WHAPS048
  
!                                                                                                                                      NO3 (ppm) at soil dep. (cm):                                                    NH4 (ppm) at soil dep. (cm):                                                    Total Inorganic N @dep(ppm):
!                                                                                                                                       0-5    5-15   15-20   20-30   30-40   40-50   50-60   60-70   70-90  90-210     0-5    5-15   15-20   20-30   30-40   40-50   50-60   60-70   70-90  90-210     0-5    5-15   15-20   20-30   30-40   40-50   50-60   60-70   70-90  90-210
@YEAR DOY   DAS  NAPC  NI#M    NIAD    NITD    NHTD   NURTD    NMNC    NITC    NDNC    NIMC    AMLC   NNMNC    NUCM    NLCC    TDNC    NI1D    NI2D    NI3D    NI4D    NI5D    NI6D    NI7D    NI8D    NI9D    NI10    NH1D    NH2D    NH3D    NH4D    NH5D    NH6D    NH7D    NH8D    NH9D    NH10    NT1D    NT2D    NT3D    NT4D    NT5D    NT6D    NT7D    NT8D    NT9D    NT10    
   16 297     0     0     0   102.6    93.5     9.1     0.0    0.00    0.00    0.00    0.00    0.00    0.00    0.00    0.00    0.00    3.10     3.1     3.1    3.10    3.10    3.10    3.10    3.10    3.10    3.10    0.30    0.30    0.30    0.30    0.30    0.30    0.30    0.30    0.30    0.30    3.40    3.40    3.40    3.40    3.40    3.40    3.40    3.40    3.40    3.40
   16 298     1     0     0   102.6    95.0     7.7     0.0    0.13    1.43    0.00    0.08    0.00    0.05    0.00    0.00    0.00    2.98     3.2     3.1    3.14    3.14    3.14    3.14    3.15    3.15    3.15    0.23    0.23    0.26    0.26    0.26    0.25    0.26    0.26    0.25    0.26    3.21    3.44    3.40    3.40    3.40    3.40    3.40    3.40    3.40    3.40
   16 299     2     0     0   102.7    96.2     6.5     0.0    0.26    2.64    0.00    0.15    0.00    0.12    0.00    0.00    0.00    3.12     3.3     3.2    3.16    3.16    3.17    3.17    3.18    3.18    3.18    0.17    0.16    0.22    0.22    0.23    0.22    0.22    0.22    0.22    0.22    3.29    3.47    3.39    3.38    3.39    3.39    3.39    3.40    3.40    3.40
   16 300     3     0     0   102.8    97.2     5.6     0.0    0.40    3.66    0.00    0.20    0.00    0.20    0.00    0.00    0.00    3.15     3.3     3.3    3.21    3.18    3.20    3.20    3.21    3.21    3.22    0.13    0.11    0.19    0.19    0.20    0.19    0.19    0.19    0.19    0.19    3.28    3.42    3.45    3.40    3.38    3.39    3.39    3.40    3.40    3.41
   16 301     4     0     0   102.9    98.0     4.9     0.0    0.54    4.49    0.00    0.25    0.00    0.29    0.00    0.00    0.00    3.29     3.3     3.3    3.23    3.20    3.22    3.23    3.23    3.24    3.24    0.09    0.07    0.17    0.17    0.18    0.16    0.17    0.17    0.16    0.16    3.38    3.39    3.45    3.39    3.38    3.38    3.39    3.40    3.40    3.41
   16 302     5     0     0   103.0    98.7     4.3     0.0    0.67    5.17    0.00    0.28    0.00    0.38    0.00    0.00    0.00    3.57     3.3     3.3    3.23    3.21    3.23    3.24    3.25    3.25    3.26    0.07    0.05    0.15    0.15    0.16    0.14    0.15    0.15    0.14    0.15    3.64    3.34    3.45    3.38    3.37    3.38    3.39    3.40    3.40    3.41
   16 303     6     0     0   103.0    99.2     3.8     0.0    0.78    5.72    0.00    0.30    0.00    0.48    0.00    0.00    0.00    3.64     3.3     3.3    3.24    3.23    3.25    3.26    3.27    3.27    3.28    0.06    0.03    0.13    0.13    0.14    0.13    0.13    0.13    0.13    0.13    3.69    3.31    3.44    3.37    3.37    3.38    3.39    3.40    3.40    3.41
   16 304     7     0     0   103.1    99.7     3.4     0.0    0.88    6.19    0.00    0.31    0.00    0.57    0.00    0.00    0.00    3.69     3.3     3.3    3.25    3.24    3.26    3.27    3.28    3.29    3.30    0.05    0.02    0.12    0.12    0.13    0.12    0.12    0.12    0.12    0.12    3.74    3.29    3.44    3.37    3.37    3.38    3.39    3.41    3.40    3.41
   16 305     8     0     0   103.2   100.1     3.1     0.0    0.96    6.58    0.00    0.32    0.00    0.65    0.00    0.00    0.00    3.75     3.3     3.3    3.26    3.25    3.27    3.28    3.30    3.30    3.31    0.04    0.02    0.11    0.11    0.12    0.11    0.11    0.11    0.11    0.11    3.79    3.27    3.43    3.37    3.37    3.38    3.39    3.41    3.40    3.42
   16 306     9     0     0   103.3   100.4     2.8     0.0    1.04    6.93    0.00    0.32    0.00    0.72    0.00    0.00    0.00    3.81     3.2     3.3    3.27    3.26    3.28    3.29    3.31    3.31    3.32    0.04    0.02    0.10    0.10    0.11    0.10    0.10    0.10    0.10    0.10    3.85    3.26    3.43    3.37    3.37    3.38    3.39    3.41    3.40    3.42
   16 307    10     0     0   103.4   100.7     2.6     0.0    1.11    7.24    0.00    0.32    0.00    0.79    0.00    0.00    0.00    3.86     3.2     3.3    3.27    3.27    3.29    3.30    3.32    3.32    3.33    0.04    0.01    0.09    0.09    0.10    0.09    0.09    0.09    0.09    0.09    3.90    3.24    3.42    3.36    3.37    3.38    3.39    3.41    3.41    3.42
   16 308    11     0     0   103.4   101.0     2.4     0.0    1.17    7.52    0.00    0.32    0.00    0.86    0.00    0.00    0.00    3.90     3.2     3.3    3.28    3.28    3.30    3.31    3.32    3.33    3.34    0.03    0.01    0.09    0.09    0.09    0.08    0.08    0.09    0.08    0.08    3.94    3.23    3.42    3.36    3.37    3.38    3.39    3.41    3.41    3.42
   16 309    12     0     0   103.5   101.3     2.2     0.0    1.23    7.77    0.00    0.32    0.00    0.92    0.00    0.00    0.00    3.96     3.2     3.3    3.28    3.28    3.30    3.32    3.33    3.33    3.35    0.03    0.01    0.08    0.08    0.08    0.08    0.08    0.08    0.07    0.07    3.99    3.21    3.41    3.36    3.37    3.38    3.39    3.41    3.41    3.42
   16 310    13     0     0   103.5   101.5     2.0     0.0    1.29    7.99    0.00    0.32    0.00    0.97    0.00    0.00    0.00    2.98     3.6     3.4    3.30    3.29    3.31    3.32    3.34    3.34    3.36    0.03    0.01    0.08    0.07    0.08    0.07    0.07    0.07    0.07    0.07    3.01    3.63    3.52    3.38    3.37    3.38    3.39    3.41    3.41    3.43
   16 311    14     0     0   103.6   101.7     1.9     0.0    1.34    8.20    0.00    0.32    0.00    1.03    0.00    0.00    0.00    2.10     3.6     3.9    3.53    3.32    3.31    3.33    3.34    3.35    3.36    0.03    0.01    0.07    0.07    0.07    0.06    0.07    0.07    0.06    0.06    2.13    3.61    3.93    3.60    3.39    3.38    3.39    3.41    3.41    3.43
   16 312    15     0     0   103.7   101.9     1.7     0.0    1.40    8.40    0.00    0.32    0.00    1.09    0.00    0.00    0.00    1.93     3.3     3.6    3.50    3.35    3.37    3.44    3.47    3.46    3.38    0.03    0.01    0.07    0.06    0.07    0.06    0.06    0.06    0.06    0.06    1.96    3.30    3.66    3.56    3.41    3.43    3.50    3.53    3.52    3.44
   16 313    16     0     0   103.5   101.9     1.6     0.0    1.45    8.57    0.00    0.32    0.00    1.13    0.18    0.00    0.00    1.67     3.1     3.5    3.48    3.36    3.38    3.44    3.48    3.46    3.50    0.02    0.01    0.06    0.06    0.06    0.05    0.05    0.06    0.05    0.05    1.69    3.12    3.52    3.54    3.42    3.43    3.49    3.53    3.52    3.56
   16 314    17     0     0   103.6   102.1     1.5     0.0    1.49    8.73    0.00    0.32    0.00    1.18    0.18    0.00    0.00    1.53     3.1     3.5    3.53    3.39    3.40    3.44    3.48    3.47    3.51    0.02    0.01    0.06    0.05    0.06    0.05    0.05    0.05    0.05    0.05    1.55    3.07    3.59    3.59    3.45    3.45    3.49    3.53    3.52    3.56
   16 315    18     0     0   103.6   102.2     1.4     0.0    1.53    8.87    0.00    0.32    0.00    1.21    0.18    0.00    0.00    1.22     2.9     3.7    3.63    3.46    3.44    3.47    3.50    3.47    3.51    0.02    0.01    0.05    0.05    0.05    0.05    0.05    0.05    0.04    0.05    1.24    2.92    3.74    3.68    3.52    3.48    3.52    3.55    3.51    3.56
   16 316    19     0     0   103.6   102.3     1.3     0.0    1.56    8.99    0.00    0.32    0.00    1.25    0.19    0.00    0.00    1.01     2.7     3.7    3.72    3.56    3.50    3.51    3.53    3.49    3.51    0.02    0.01    0.05    0.05    0.05    0.04    0.04    0.04    0.04    0.04    1.03    2.68    3.75    3.77    3.61    3.54    3.56    3.57    3.53    3.56
   16 317    20     0     0   103.6   102.4     1.2     0.0    1.59    9.11    0.00    0.32    0.00    1.27    0.23    0.00    0.00    0.91     2.4     3.2    3.48    3.47    3.44    3.47    3.49    3.48    3.51    0.02    0.01    0.05    0.05    0.05    0.04    0.04    0.04    0.04    0.04    0.93    2.40    3.29    3.53    3.51    3.49    3.51    3.53    3.51    3.54
   16 318    21     0     0   103.0   101.8     1.1     0.0    1.62    9.21    0.00    0.32    0.00    1.30    0.26    0.63    0.00    0.86     2.3     3.0    3.37    3.42    3.42    3.46    3.49    3.47    3.50    0.02    0.01    0.05    0.04    0.04    0.04    0.04    0.04    0.03    0.04    0.87    2.26    3.05    3.42    3.46    3.46    3.50    3.52    3.51    3.54
   16 319    22     0     0   102.7   101.6     1.1     0.0    1.64    9.31    0.00    0.32    0.00    1.33    0.27    0.95    0.00    0.85     2.2     2.9    3.32    3.40    3.42    3.46    3.48    3.47    3.50    0.02    0.01    0.05    0.04    0.04    0.04    0.04    0.04    0.03    0.03    0.87    2.19    2.93    3.36    3.44    3.46    3.50    3.52    3.50    3.53
   16 320    23     0     0   102.7   101.7     1.0     0.0    1.66    9.40    0.00    0.32    0.00    1.35    0.27    0.95    0.00    0.76     2.1     2.9    3.35    3.42    3.43    3.47    3.49    3.48    3.50    0.02    0.01    0.04    0.04    0.04    0.03    0.03    0.03    0.03    0.03    0.77    2.15    2.98    3.39    3.46    3.46    3.50    3.53    3.51    3.53
   16 321    24     0     0   102.7   101.8     0.9     0.0    1.68    9.48    0.00    0.32    0.00    1.36    0.27    0.95    0.00    0.58     2.0     3.0    3.43    3.49    3.47    3.49    3.51    3.50    3.50    0.01    0.01    0.04    0.04    0.04    0.03    0.03    0.03    0.03    0.03    0.60    1.96    3.05    3.46    3.53    3.50    3.52    3.54    3.53    3.53
   16 322    25     0     0   101.4   100.5     0.9     0.0    1.70    9.56    0.00    0.32    0.00    1.38    0.29    2.29    0.00    0.52     1.7     2.6    3.19    3.38    3.43    3.46    3.49    3.49    3.50    0.01    0.01    0.04    0.03    0.03    0.03    0.03    0.03    0.03    0.02    0.53    1.75    2.63    3.22    3.42    3.46    3.49    3.52    3.51    3.52
   16 323    26     0     0   101.2   100.4     0.8     0.0    1.74    9.64    0.00    0.32    0.00    1.42    0.50    2.29    0.00    0.29     1.6     2.6    3.21    3.43    3.46    3.48    3.50    3.48    3.52    0.01    0.01    0.04    0.03    0.03    0.03    0.03    0.03    0.02    0.02    0.29    1.57    2.60    3.24    3.46    3.49    3.51    3.52    3.50    3.54
   16 324    27     0     0   101.1   100.3     0.8     0.0    1.80    9.72    0.00    0.32    0.00    1.48    0.61    2.29    0.00    0.19     1.3     2.5    3.21    3.50    3.53    3.53    3.52    3.48    3.52    0.01    0.00    0.04    0.03    0.03    0.03    0.03    0.03    0.02    0.02    0.20    1.33    2.50    3.24    3.53    3.56    3.55    3.55    3.51    3.55
   16 325    28     0     0    99.3    98.5     0.8     0.0    1.87    9.80    0.00    0.32    0.00    1.56    0.67    4.13    0.00    0.15     1.1     2.0    2.86    3.28    3.41    3.46    3.47    3.46    3.50    0.00    0.00    0.03    0.03    0.03    0.03    0.03    0.03    0.02    0.02    0.15    1.14    2.07    2.89    3.31    3.44    3.49    3.50    3.49    3.53
   16 326    29     0     0    98.5    97.7     0.8     0.0    1.96    9.88    0.00    0.32    0.00    1.64    0.77    4.95    0.00    0.13     1.0     1.9    2.71    3.17    3.36    3.43    3.46    3.45    3.49    0.00    0.00    0.03    0.03    0.03    0.02    0.02    0.03    0.02    0.02    0.13    1.04    1.89    2.74    3.20    3.38    3.45    3.49    3.48    3.52
   16 327    30     0     0    98.1    97.3     0.8     0.0    2.04    9.97    0.00    0.32    0.00    1.72    0.89    5.26    0.00    0.08     1.0     1.8    2.64    3.13    3.34    3.42    3.46    3.45    3.49    0.00    0.00    0.03    0.03    0.03    0.02    0.02    0.02    0.02    0.02    0.08    0.97    1.82    2.67    3.15    3.36    3.45    3.48    3.47    3.51
   16 328    31     0     0    98.0    97.2     0.8     0.0    2.13   10.05    0.00    0.32    0.00    1.80    1.00    5.35    0.00    0.04     0.9     1.8    2.63    3.12    3.34    3.42    3.46    3.45    3.49    0.00    0.00    0.03    0.02    0.02    0.02    0.02    0.02    0.02    0.02    0.04    0.92    1.79    2.65    3.14    3.36    3.44    3.48    3.47    3.51
   16 329    32     0     0    98.0    97.2     0.8     0.0    2.21   10.14    0.00    0.33    0.00    1.88    1.08    5.35    0.00    0.04     0.9     1.8    2.63    3.11    3.33    3.42    3.46    3.45    3.49    0.00    0.00    0.03    0.02    0.02    0.02    0.02    0.02    0.02    0.02    0.04    0.89    1.82    2.66    3.14    3.35    3.44    3.48    3.47    3.51
   16 330    33     0     0    98.0    97.2     0.8     0.0    2.29   10.22    0.01    0.33    0.00    1.96    1.16    5.35    0.00    0.02     0.9     1.8    2.64    3.12    3.33    3.42    3.46    3.45    3.49    0.00    0.00    0.02    0.02    0.02    0.02    0.02    0.02    0.02    0.02    0.02    0.85    1.83    2.66    3.14    3.35    3.44    3.48    3.47    3.52
   16 331    34     0     0    98.0    97.2     0.8     0.0    2.38   10.31    0.01    0.33    0.00    2.05    1.22    5.35    0.00    0.02     0.8     1.8    2.64    3.12    3.33    3.42    3.46    3.45    3.49    0.00    0.00    0.02    0.02    0.02    0.02    0.02    0.02    0.02    0.03    0.02    0.82    1.84    2.66    3.14    3.35    3.44    3.48    3.47    3.52
   16 332    35     0     0    98.0    97.3     0.8     0.0    2.46   10.39    0.01    0.33    0.00    2.13    1.29    5.35    0.00    0.01     0.8     1.8    2.64    3.12    3.33    3.42    3.46    3.45    3.49    0.00    0.00    0.02    0.02    0.02    0.02    0.02    0.02    0.02    0.03    0.01    0.79    1.84    2.66    3.14    3.35    3.44    3.48    3.47    3.52
   16 333    36     0     0    98.1    97.3     0.8     0.0    2.53   10.47    0.01    0.33    0.00    2.20    1.34    5.35    0.00    0.03     0.8     1.8    2.64    3.12    3.33    3.42    3.46    3.45    3.49    0.00    0.00    0.02    0.02    0.02    0.02    0.02    0.02    0.02    0.03    0.03    0.76    1.85    2.66    3.14    3.35    3.44    3.48    3.47    3.52
   16 334    37     0     0    98.0    97.3     0.7     0.0    2.58   10.55    0.01    0.33    0.00    2.25    1.40    5.35    0.00    0.02     0.7     1.8    2.64    3.12    3.33    3.42    3.46    3.45    3.49    0.00    0.00    0.02    0.02    0.02    0.02    0.02    0.02    0.02    0.02    0.02    0.73    1.86    2.66    3.13    3.35    3.44    3.48    3.47    3.52
   16 335    38     0     0    98.0    97.3     0.7     0.0    2.60   10.62    0.01    0.33    0.00    2.27    1.46    5.35    0.00    0.02     0.7     1.8    2.64    3.12    3.33    3.42    3.46    3.45    3.50    0.00    0.00    0.02    0.01    0.02    0.02    0.02    0.02    0.02    0.02    0.02    0.71    1.87    2.66    3.13    3.35    3.44    3.48    3.47    3.52
   16 336    39     0     0    98.0    97.3     0.7     0.0    2.61   10.67    0.01    0.33    0.00    2.28    1.51    5.35    0.00    0.02     0.7     1.9    2.65    3.12    3.33    3.42    3.46    3.45    3.50    0.00    0.00    0.02    0.01    0.02    0.01    0.02    0.02    0.02    0.02    0.02    0.69    1.87    2.66    3.13    3.35    3.43    3.48    3.47    3.52
   16 337    40     0     0    97.9    97.3     0.6     0.0    2.62   10.72    0.01    0.33    0.00    2.28    1.56    5.35    0.00    0.02     0.7     1.9    2.65    3.12    3.33    3.42    3.46    3.45    3.50    0.00    0.00    0.02    0.01    0.01    0.01    0.02    0.02    0.02    0.02    0.02    0.67    1.88    2.66    3.13    3.34    3.43    3.48    3.47    3.52
   16 338    41     0     0    97.9    97.3     0.6     0.0    2.62   10.77    0.01    0.33    0.00    2.29    1.61    5.35    0.00    0.02     0.6     1.9    2.65    3.12    3.33    3.42    3.46    3.45    3.50    0.00    0.00    0.01    0.01    0.01    0.01    0.01    0.02    0.02    0.02    0.02    0.65    1.89    2.66    3.13    3.34    3.43    3.48    3.46    3.51
   16 339    42     0     0    97.8    97.3     0.5     0.0    2.62   10.82    0.01    0.33    0.00    2.29    1.66    5.35    0.00    0.01     0.6     1.9    2.65    3.12    3.33    3.42    3.46    3.45    3.50    0.00    0.00    0.01    0.01    0.01    0.01    0.01    0.02    0.01    0.02    0.01    0.63    1.89    2.66    3.13    3.34    3.43    3.47    3.46    3.51
   16 340    43     0     0    97.8    97.3     0.5     0.0    2.62   10.86    0.01    0.33    0.00    2.29    1.71    5.35    0.00    0.01     0.6     1.9    2.65    3.12    3.33    3.42    3.46    3.45    3.50    0.00    0.00    0.01    0.01    0.01    0.01    0.01    0.01    0.01    0.02    0.01    0.61    1.90    2.66    3.13    3.34    3.43    3.47    3.46    3.51
   16 341    44     0     0    97.7    97.3     0.4     0.0    2.63   10.90    0.01    0.33    0.00    2.29    1.75    5.35    0.00    0.00     0.6     1.9    2.65    3.12    3.33    3.42    3.46    3.45    3.50    0.00    0.00    0.01    0.01    0.01    0.01    0.01    0.01    0.01    0.01    0.00    0.58    1.89    2.66    3.13    3.34    3.43    3.47    3.46    3.51
   16 342    45     0     0    97.7    97.3     0.4     0.0    2.63   10.93    0.01    0.33    0.00    2.29    1.78    5.35    0.00    0.01     0.6     1.9    2.65    3.12    3.33    3.42    3.46    3.45    3.50    0.00    0.00    0.01    0.01    0.01    0.01    0.01    0.01    0.01    0.01    0.01    0.56    1.90    2.66    3.13    3.34    3.43    3.47    3.46    3.51
   16 343    46     0     0    97.7    97.3     0.4     0.0    2.63   10.96    0.01    0.33    0.00    2.29    1.82    5.35    0.00    0.00     0.5     1.9    2.65    3.12    3.33    3.42    3.46    3.45    3.50    0.00    0.00    0.01    0.01    0.01    0.01    0.01    0.01    0.01    0.01    0.00    0.54    1.89    2.66    3.13    3.34    3.43    3.47    3.46    3.51
   16 344    47     0     0    97.6    97.3     0.4     0.0    2.63   10.99    0.01    0.33    0.00    2.29    1.85    5.35    0.00    0.00     0.5     1.9    2.65    3.12    3.33    3.42    3.46    3.45    3.50    0.00    0.00    0.01    0.01    0.01    0.01    0.01    0.01    0.01    0.01    0.00    0.52    1.89    2.66    3.13    3.34    3.43    3.47    3.46    3.51
   16 345    48     0     0    97.6    97.3     0.3     0.0    2.63   11.01    0.01    0.33    0.00    2.30    1.88    5.35    0.00    0.01     0.5     1.9    2.65    3.12    3.33    3.42    3.46    3.45    3.50    0.00    0.00    0.01    0.01    0.01    0.01    0.01    0.01    0.01    0.01    0.01    0.50    1.89    2.66    3.13    3.34    3.43    3.47    3.46    3.51
   16 346    49     0     0    97.6    97.3     0.3     0.0    2.63   11.04    0.01    0.33    0.00    2.30    1.91    5.35    0.00    0.01     0.5     1.9    2.65    3.12    3.33    3.42    3.46    3.45    3.50    0.00    0.00    0.01    0.01    0.01    0.01    0.01    0.01    0.01    0.01    0.01    0.48    1.89    2.66    3.13    3.34    3.43    3.47    3.46    3.51
   16 347    50     0     0    97.6    97.3     0.3     0.0    2.64   11.07    0.01    0.33    0.00    2.30    1.94    5.35    0.00    0.01     0.5     1.9    2.65    3.12    3.33    3.42    3.46    3.45    3.50    0.00    0.00    0.01    0.01    0.01    0.01    0.01    0.01    0.01    0.01    0.01    0.46    1.88    2.66    3.12    3.34    3.43    3.47    3.46    3.51
   16 348    51     0     0    97.5    97.3     0.3     0.0    2.65   11.09    0.01    0.33    0.00    2.31    1.97    5.35    0.00    0.00     0.4     1.9    2.65    3.12    3.33    3.42    3.46    3.45    3.50    0.00    0.00    0.01    0.01    0.01    0.01    0.01    0.01    0.01    0.01    0.00    0.44    1.88    2.66    3.12    3.34    3.43    3.47    3.46    3.51
   16 349    52     0     0    97.5    97.3     0.3     0.0    2.66   11.11    0.01    0.33    0.00    2.33    2.00    5.35    0.00    0.01     0.4     1.9    2.65    3.12    3.33    3.42    3.46    3.45    3.50    0.00    0.00    0.01    0.01    0.01    0.01    0.01    0.01    0.01    0.01    0.01    0.43    1.88    2.65    3.12    3.34    3.42    3.47    3.46    3.51
   16 350    53     0     0    97.5    97.3     0.3     0.0    2.67   11.14    0.01    0.33    0.00    2.34    2.03    5.35    0.00    0.01     0.4     1.9    2.64    3.12    3.33    3.42    3.46    3.45    3.50    0.00    0.00    0.01    0.01    0.01    0.01    0.01    0.01    0.01    0.01    0.01    0.41    1.87    2.65    3.12    3.34    3.42    3.47    3.46    3.51
   16 351    54     0     0    97.5    97.2     0.2     0.0    2.69   11.16    0.01    0.33    0.00    2.36    2.06    5.35    0.00    0.01     0.4     1.9    2.64    3.12    3.33    3.42    3.47    3.45    3.50    0.00    0.00    0.01    0.01    0.01    0.01    0.01    0.01    0.01    0.01    0.01    0.40    1.87    2.65    3.12    3.34    3.42    3.47    3.46    3.51
   16 352    55     0     0    97.5    97.2     0.2     0.0    2.70   11.18    0.01    0.33    0.00    2.37    2.08    5.35    0.00    0.00     0.4     1.9    2.64    3.12    3.33    3.42    3.47    3.46    3.51    0.00    0.00    0.01    0.01    0.01    0.01    0.01    0.01    0.01    0.01    0.00    0.38    1.86    2.65    3.12    3.34    3.42    3.47    3.46    3.51
   16 353    56     0     0    97.5    97.2     0.2     0.0    2.71   11.20    0.01    0.33    0.00    2.38    2.11    5.35    0.00    0.00     0.4     1.9    2.64    3.12    3.33    3.42    3.47    3.46    3.51    0.00    0.00    0.01    0.01    0.01    0.01    0.01    0.01    0.01    0.01    0.00    0.37    1.86    2.64    3.12    3.34    3.42    3.47    3.46    3.51
   16 354    57     0     0    97.4    97.2     0.2     0.0    2.72   11.22    0.01    0.33    0.00    2.39    2.13    5.35    0.00    0.00     0.4     1.8    2.64    3.12    3.33    3.42    3.47    3.46    3.51    0.00    0.00    0.01    0.00    0.01    0.00    0.00    0.01    0.00    0.01    0.00    0.36    1.85    2.64    3.12    3.34    3.42    3.47    3.46    3.51
   16 355    58     0     0    97.4    97.2     0.2     0.0    2.72   11.24    0.01    0.33    0.00    2.39    2.16    5.35    0.00    0.00     0.3     1.8    2.63    3.12    3.33    3.42    3.47    3.46    3.51    0.00    0.00    0.01    0.00    0.01    0.00    0.00    0.01    0.00    0.00    0.00    0.35    1.85    2.64    3.12    3.34    3.42    3.47    3.46    3.51
   16 356    59     0     0    97.4    97.2     0.2     0.0    2.72   11.26    0.01    0.33    0.00    2.39    2.18    5.35    0.00    0.00     0.3     1.8    2.63    3.12    3.33    3.42    3.47    3.46    3.51    0.00    0.00    0.01    0.00    0.00    0.00    0.00    0.00    0.00    0.00    0.00    0.33    1.85    2.64    3.12    3.34    3.42    3.47    3.46    3.51
   16 357    60     0     0    97.4    97.2     0.2     0.0    2.72   11.27    0.01    0.33    0.00    2.39    2.20    5.35    0.00    0.00     0.3     1.8    2.63    3.12    3.33    3.42    3.47    3.46    3.51    0.00    0.00    0.01    0.00    0.00    0.00    0.00    0.00    0.00    0.00    0.00    0.32    1.84    2.63    3.12    3.34    3.42    3.47    3.46    3.51
   16 358    61     0     0    97.4    97.2     0.2     0.0    2.72   11.28    0.01    0.33    0.00    2.39    2.22    5.35    0.00    0.00     0.3     1.8    2.63    3.12    3.33    3.42    3.47    3.46    3.51    0.00    0.00    0.00    0.00    0.00    0.00    0.00    0.00    0.00    0.00    0.00    0.31    1.84    2.63    3.12    3.34    3.42    3.47    3.46    3.51
   16 359    62     0     0    97.3    97.2     0.1     0.0    2.72   11.30    0.01    0.33    0.00    2.39    2.24    5.35    0.00    0.00     0.3     1.8    2.62    3.12    3.33    3.42    3.47    3.46    3.51    0.00    0.00    0.00    0.00    0.00    0.00    0.00    0.00    0.00    0.00    0.00    0.30    1.83    2.63    3.12    3.34    3.42    3.47    3.46    3.51
   16 360    63     0     0    97.3    97.2     0.1     0.0    2.73   11.31    0.01    0.33    0.00    2.39    2.26    5.35    0.00    0.00     0.3     1.8    2.62    3.12    3.33    3.42    3.47    3.46    3.51    0.00    0.00    0.00    0.00    0.00    0.00    0.00    0.00    0.00    0.00    0.00    0.29    1.83    2.63    3.12    3.33    3.42    3.47    3.46    3.51
   16 361    64     0     0    97.3    97.2     0.1     0.0    2.73   11.32    0.01    0.33    0.00    2.40    2.28    5.35    0.00    0.00     0.3     1.8    2.62    3.12    3.33    3.42    3.47    3.46    3.51    0.00    0.00    0.00    0.00    0.00    0.00    0.00    0.00    0.00    0.00    0.00    0.28    1.83    2.62    3.12    3.33    3.42    3.47    3.46    3.51
   16 362    65     0     0    97.3    97.2     0.1     0.0    2.75   11.33    0.01    0.33    0.00    2.42    2.30    5.35    0.00    0.01     0.3     1.8    2.62    3.12    3.33    3.42    3.47    3.46    3.51    0.00    0.00    0.00    0.00    0.00    0.00    0.00    0.00    0.00    0.00    0.01    0.28    1.82    2.62    3.12    3.33    3.42    3.47    3.46    3.51
   16 363    66     0     0    97.3    97.2     0.2     0.0    2.78   11.34    0.01    0.33    0.00    2.45    2.32    5.35    0.00    0.01     0.3     1.8    2.61    3.12    3.33    3.42    3.47    3.46    3.51    0.00    0.00    0.00    0.00    0.00    0.00    0.00    0.00    0.00    0.00    0.01    0.27    1.82    2.61    3.12    3.33    3.42    3.47    3.46    3.51
   16 364    67     0     0    97.3    97.2     0.2     0.0    2.81   11.36    0.01    0.33    0.00    2.48    2.34    5.35    0.00    0.01     0.3     1.8    2.61    3.12    3.33    3.42    3.47    3.46    3.51    0.00    0.00    0.00    0.00    0.00    0.00    0.00    0.00    0.00    0.00    0.01    0.26    1.81    2.61    3.12    3.33    3.42    3.47    3.46    3.51
   16 365    68     0     0    97.3    97.2     0.2     0.0    2.84   11.38    0.01    0.33    0.00    2.50    2.36    5.35    0.00    0.01     0.3     1.8    2.60    3.12    3.33    3.42    3.47    3.46    3.51    0.00    0.00    0.00    0.00    0.00    0.00    0.00    0.00    0.00    0.00    0.01    0.25    1.81    2.61    3.12    3.33    3.42    3.47    3.46    3.51
   16 366    69     0     0    97.3    97.2     0.2     0.0    2.84   11.39    0.01    0.33    0.00    2.51    2.38    5.35    0.00    0.01     0.2     1.8    2.60    3.12    3.33    3.42    3.47    3.46    3.51    0.00    0.00    0.00    0.00    0.00    0.00    0.00    0.00    0.00    0.00    0.01    0.25    1.80    2.60    3.12    3.33    3.42    3.47    3.46    3.51
   17 001    70     0     0    97.3    97.2     0.2     0.0    2.84   11.41    0.01    0.33    0.00    2.51    2.40    5.35    0.00    0.01     0.2     1.8    2.59    3.12    3.33    3.42    3.47    3.46    3.51    0.00    0.00    0.00    0.00    0.00    0.00    0.00    0.00    0.00    0.00    0.01    0.24    1.80    2.59    3.12    3.33    3.42    3.47    3.46    3.51
   17 002    71     0     0    97.3    97.1     0.1     0.0    2.84   11.42    0.01    0.33    0.00    2.51    2.42    5.35    0.00    0.01     0.2     1.8    2.59    3.12    3.33    3.42    3.47    3.46    3.51    0.00    0.00    0.00    0.00    0.00    0.00    0.00    0.00    0.00    0.00    0.01    0.23    1.79    2.59    3.12    3.33    3.42    3.47    3.46    3.51
   17 003    72     0     0    97.3    97.1     0.1     0.0    2.84   11.43    0.01    0.33    0.00    2.51    2.44    5.35    0.00    0.00     0.2     1.8    2.58    3.12    3.33    3.42    3.47    3.46    3.51    0.00    0.00    0.00    0.00    0.00    0.00    0.00    0.00    0.00    0.00    0.00    0.23    1.79    2.58    3.12    3.33    3.42    3.47    3.46    3.51
   17 004    73     0     0    97.2    97.1     0.1     0.0    2.84   11.44    0.01    0.33    0.00    2.51    2.46    5.35    0.00    0.00     0.2     1.8    2.58    3.12    3.33    3.42    3.47    3.46    3.51    0.00    0.00    0.00    0.00    0.00    0.00    0.00    0.00    0.00    0.00    0.00    0.22    1.78    2.58    3.12    3.33    3.42    3.47    3.46    3.51
   17 005    74     0     0    97.2    97.1     0.1     0.0    2.84   11.45    0.01    0.33    0.00    2.51    2.48    5.35    0.00    0.00     0.2     1.8    2.57    3.12    3.33    3.42    3.47    3.46    3.51    0.00    0.00    0.00    0.00    0.00    0.00    0.00    0.00    0.00    0.00    0.00    0.21    1.78    2.57    3.12    3.33    3.42    3.47    3.46    3.51
   17 006    75     0     0    97.2    97.1     0.1     0.0    2.84   11.45    0.01    0.33    0.00    2.51    2.50    5.35    0.00    0.00     0.2     1.8    2.57    3.12    3.33    3.42    3.47    3.46    3.51    0.00    0.00    0.00    0.00    0.00    0.00    0.00    0.00    0.00    0.00    0.00    0.21    1.77    2.57    3.12    3.33    3.42    3.47    3.46    3.51
   17 007    76     0     0    97.2    97.1     0.1     0.0    2.84   11.46    0.01    0.33    0.00    2.51    2.51    5.35    0.00    0.00     0.2     1.8    2.56    3.12    3.33    3.42    3.47    3.46    3.51    0.00    0.00    0.00    0.00    0.00    0.00    0.00    0.00    0.00    0.00    0.00    0.20    1.77    2.57    3.12    3.33    3.42    3.47    3.46    3.51
   17 008    77     0     0    97.2    97.1     0.1     0.0    2.84   11.47    0.01    0.33    0.00    2.51    2.53    5.35    0.00    0.00     0.2     1.8    2.56    3.12    3.33    3.42    3.47    3.46    3.51    0.00    0.00    0.00    0.00    0.00    0.00    0.00    0.00    0.00    0.00    0.00    0.20    1.76    2.56    3.12    3.33    3.42    3.47    3.46    3.51
   17 009    78     0     0    97.2    97.1     0.1     0.0    2.84   11.47    0.01    0.33    0.00    2.51    2.55    5.35    0.00    0.00     0.2     1.8    2.55    3.12    3.33    3.42    3.47    3.46    3.51    0.00    0.00    0.00    0.00    0.00    0.00    0.00    0.00    0.00    0.00    0.00    0.19    1.76    2.56    3.12    3.33    3.42    3.47    3.46    3.51
   17 010    79     0     0    97.1    97.1     0.1     0.0    2.84   11.48    0.01    0.33    0.00    2.51    2.56    5.35    0.00    0.00     0.2     1.8    2.55    3.12    3.33    3.42    3.47    3.46    3.51    0.00    0.00    0.00    0.00    0.00    0.00    0.00    0.00    0.00    0.00    0.00    0.19    1.76    2.55    3.12    3.33    3.42    3.47    3.46    3.51
   17 011    80     0     0    97.1    97.0     0.1     0.0    2.84   11.48    0.01    0.33    0.00    2.51    2.58    5.35    0.00    0.00     0.2     1.7    2.55    3.12    3.33    3.42    3.47    3.46    3.51    0.00    0.00    0.00    0.00    0.00    0.00    0.00    0.00    0.00    0.00    0.00    0.18    1.75    2.55    3.12    3.33    3.42    3.47    3.46    3.51
   17 012    81     0     0    97.1    97.0     0.1     0.0    2.84   11.49    0.01    0.33    0.00    2.51    2.60    5.35    0.00    0.00     0.2     1.7    2.57    3.12    3.33    3.42    3.47    3.46    3.51    0.00    0.00    0.00    0.00    0.00    0.00    0.00    0.00    0.00    0.00    0.00    0.17    1.70    2.57    3.12    3.33    3.42    3.47    3.46    3.51
   17 013    82     0     0    96.9    96.8     0.1     0.0    2.84   11.49    0.01    0.33    0.00    2.51    2.61    5.59    0.00    0.00     0.2     1.4    2.46    3.08    3.33    3.43    3.47    3.46    3.51    0.00    0.00    0.00    0.00    0.00    0.00    0.00    0.00    0.00    0.00    0.00    0.16    1.44    2.46    3.08    3.33    3.43    3.47    3.46    3.51
   17 014    83     0     0    96.6    96.5     0.1     0.0    2.84   11.50    0.01    0.33    0.00    2.51    2.63    5.85    0.00    0.00     0.2     1.3    2.40    3.05    3.31    3.43    3.47    3.46    3.51    0.00    0.00    0.00    0.00    0.00    0.00    0.00    0.00    0.00    0.00    0.00    0.15    1.32    2.41    3.05    3.32    3.43    3.47    3.46    3.51
   17 015    84     0     0    96.5    96.4     0.1     0.0    2.84   11.50    0.01    0.33    0.00    2.51    2.64    5.93    0.00    0.00     0.1     1.3    2.38    3.04    3.31    3.43    3.47    3.46    3.51    0.00    0.00    0.00    0.00    0.00    0.00    0.00    0.00    0.00    0.00    0.00    0.15    1.28    2.38    3.04    3.31    3.43    3.47    3.46    3.51
   17 016    85     0     0    96.4    96.4     0.1     0.0    2.84   11.51    0.01    0.33    0.00    2.51    2.66    5.97    0.00    0.00     0.1     1.3    2.37    3.03    3.31    3.43    3.47    3.46    3.51    0.00    0.00    0.00    0.00    0.00    0.00    0.00    0.00    0.00    0.00    0.00    0.15    1.26    2.37    3.03    3.31    3.43    3.47    3.46    3.51
   17 017    86     0     0    96.4    96.4     0.0     0.0    2.84   11.51    0.01    0.33    0.00    2.51    2.67    5.98    0.00    0.00     0.1     1.3    2.36    3.03    3.31    3.42    3.47    3.46    3.51    0.00    0.00    0.00    0.00    0.00    0.00    0.00    0.00    0.00    0.00    0.00    0.14    1.25    2.36    3.03    3.31    3.43    3.47    3.46    3.51
   17 018    87     0     0    96.4    96.3     0.0     0.0    2.84   11.51    0.01    0.33    0.00    2.51    2.69    5.98    0.00    0.00     0.1     1.3    2.36    3.03    3.31    3.42    3.47    3.46    3.51    0.00    0.00    0.00    0.00    0.00    0.00    0.00    0.00    0.00    0.00    0.00    0.14    1.25    2.36    3.03    3.31    3.43    3.47    3.46    3.51
   17 019    88     0     0    96.4    96.3     0.0     0.0    2.84   11.52    0.01    0.33    0.00    2.51    2.70    5.98    0.00    0.00     0.1     1.3    2.35    3.03    3.31    3.42    3.47    3.46    3.51    0.00    0.00    0.00    0.00    0.00    0.00    0.00    0.00    0.00    0.00    0.00    0.14    1.26    2.35    3.03    3.31    3.43    3.47    3.46    3.51
   17 020    89     0     0    96.4    96.3     0.0     0.0    2.84   11.52    0.01    0.33    0.00    2.51    2.71    5.98    0.00    0.00     0.1     1.3    2.35    3.03    3.31    3.42    3.47    3.46    3.50    0.00    0.00    0.00    0.00    0.00    0.00    0.00    0.00    0.00    0.00    0.00    0.14    1.26    2.35    3.03    3.31    3.42    3.47    3.46    3.51
   17 021    90     0     0    96.4    96.3     0.0     0.0    2.84   11.52    0.01    0.33    0.00    2.51    2.73    5.98    0.00    0.00     0.1     1.3    2.35    3.03    3.31    3.42    3.47    3.46    3.50    0.00    0.00    0.00    0.00    0.00    0.00    0.00    0.00    0.00    0.00    0.00    0.14    1.26    2.35    3.03    3.31    3.42    3.47    3.46    3.50
   17 022    91     0     0    96.3    96.3     0.0     0.0    2.84   11.52    0.01    0.33    0.00    2.51    2.74    5.98    0.00    0.00     0.1     1.3    2.34    3.03    3.31    3.42    3.47    3.46    3.50    0.00    0.00    0.00    0.00    0.00    0.00    0.00    0.00    0.00    0.00    0.00    0.14    1.26    2.34    3.03    3.31    3.42    3.47    3.46    3.50
   17 023    92     0     0    96.3    96.3     0.0     0.0    2.84   11.53    0.01    0.33    0.00    2.51    2.76    5.98    0.00    0.00     0.1     1.3    2.34    3.03    3.31    3.42    3.47    3.46    3.50    0.00    0.00    0.00    0.00    0.00    0.00    0.00    0.00    0.00    0.00    0.00    0.14    1.26    2.34    3.03    3.31    3.42    3.47    3.46    3.50
   17 024    93     0     0    96.3    96.3     0.0     0.0    2.84   11.53    0.01    0.33    0.00    2.51    2.77    5.98    0.00    0.00     0.1     1.3    2.33    3.03    3.31    3.42    3.47    3.46    3.50    0.00    0.00    0.00    0.00    0.00    0.00    0.00    0.00    0.00    0.00    0.00    0.13    1.26    2.34    3.03    3.31    3.42    3.47    3.46    3.50
   17 025    94     0     0    96.3    96.3     0.0     0.0    2.84   11.53    0.01    0.33    0.00    2.51    2.78    5.98    0.00    0.00     0.1     1.3    2.33    3.03    3.31    3.42    3.47    3.46    3.50    0.00    0.00    0.00    0.00    0.00    0.00    0.00    0.00    0.00    0.00    0.00    0.13    1.26    2.33    3.03    3.31    3.42    3.47    3.46    3.50
   17 026    95     0     0    96.3    96.3     0.0     0.0    2.84   11.53    0.01    0.33    0.00    2.51    2.80    5.98    0.00    0.00     0.1     1.3    2.33    3.03    3.31    3.42    3.47    3.46    3.50    0.00    0.00    0.00    0.00    0.00    0.00    0.00    0.00    0.00    0.00    0.00    0.13    1.26    2.33    3.03    3.31    3.42    3.47    3.46    3.50
   17 027    96     0     0    96.3    96.2     0.0     0.0    2.84   11.53    0.01    0.33    0.00    2.51    2.81    5.98    0.00    0.00     0.1     1.3    2.32    3.03    3.30    3.42    3.47    3.45    3.50    0.00    0.00    0.00    0.00    0.00    0.00    0.00    0.00    0.00    0.00    0.00    0.13    1.26    2.32    3.03    3.31    3.42    3.47    3.46    3.50
   17 028    97     0     0    96.3    96.2     0.0     0.0    2.84   11.53    0.01    0.33    0.00    2.51    2.82    5.98    0.00    0.00     0.1     1.3    2.32    3.03    3.30    3.42    3.46    3.45    3.50    0.00    0.00    0.00    0.00    0.00    0.00    0.00    0.00    0.00    0.00    0.00    0.14    1.27    2.32    3.03    3.30    3.42    3.47    3.45    3.50
   17 029    98     0     0    96.2    96.2     0.0     0.0    2.84   11.53    0.01    0.33    0.00    2.51    2.83    5.98    0.00    0.00     0.1     1.3    2.32    3.03    3.30    3.42    3.46    3.45    3.50    0.00    0.00    0.00    0.00    0.00    0.00    0.00    0.00    0.00    0.00    0.00    0.14    1.28    2.32    3.03    3.30    3.42    3.46    3.45    3.50
   17 030    99     0     0    96.2    96.2     0.0     0.0    2.84   11.54    0.01    0.33    0.00    2.51    2.85    5.98    0.00    0.01     0.1     1.3    2.32    3.02    3.30    3.42    3.46    3.45    3.50    0.00    0.00    0.00    0.00    0.00    0.00    0.00    0.00    0.00    0.00    0.01    0.14    1.29    2.32    3.03    3.30    3.42    3.46    3.45    3.50
   17 031   100     0     0    96.2    96.2     0.0     0.0    2.84   11.54    0.01    0.33    0.00    2.51    2.86    5.98    0.00    0.00     0.1     1.3    2.32    3.05    3.30    3.42    3.46    3.45    3.50    0.00    0.00    0.00    0.00    0.00    0.00    0.00    0.00    0.00    0.00    0.00    0.14    1.26    2.32    3.05    3.30    3.42    3.46    3.45    3.50
   17 032   101     0     0    96.1    96.0     0.0     0.0    2.84   11.54    0.01    0.33    0.00    2.51    2.87    6.13    0.00    0.01     0.1     1.1    2.24    2.99    3.29    3.42    3.47    3.46    3.50    0.00    0.00    0.00    0.00    0.00    0.00    0.00    0.00    0.00    0.00    0.01    0.14    1.13    2.24    2.99    3.29    3.42    3.47    3.46    3.50
   17 033   102     0     0    95.9    95.9     0.0     0.0    2.84   11.54    0.01    0.33    0.00    2.51    2.89    6.30    0.00    0.01     0.1     1.1    2.20    2.96    3.28    3.42    3.47    3.46    3.50    0.00    0.00    0.00    0.00    0.00    0.00    0.00    0.00    0.00    0.00    0.01    0.14    1.07    2.20    2.96    3.28    3.42    3.47    3.46    3.50
   17 034   103     0     0    95.9    95.8     0.0     0.0    2.84   11.54    0.01    0.33    0.00    2.51    2.90    6.30    0.00    0.01     0.1     1.1    2.19    2.95    3.28    3.42    3.47    3.46    3.50    0.00    0.00    0.00    0.00    0.00    0.00    0.00    0.00    0.00    0.00    0.01    0.15    1.08    2.19    2.96    3.28    3.42    3.47    3.46    3.50
   17 035   104    40     1   109.0    95.8    13.2    26.8    2.84   11.54    0.01    0.33    0.02    2.51    2.92    6.30    0.00    0.01     0.2     1.1    2.18    2.95    3.28    3.42    3.47    3.46    3.50   20.37    0.00    0.00    0.00    0.00    0.00    0.00    0.00    0.00    0.00   20.39    0.15    1.09    2.18    2.95    3.28    3.42    3.47    3.46    3.50
   17 036   105    40     1   117.2    96.5    20.7    17.9    2.84   12.22    0.01    0.33    0.07    2.51    3.58    6.30    0.00    1.07     0.2     1.1    2.19    2.95    3.27    3.41    3.46    3.45    3.50   32.02    0.00    0.00    0.00    0.00    0.00    0.00    0.00    0.00    0.00   33.10    0.17    1.13    2.19    2.95    3.28    3.41    3.46    3.45    3.50
   17 037   106    40     1   122.5    97.6    24.9    12.5    2.85   13.35    0.01    0.33    0.13    2.51    3.68    6.30    0.00    2.83     0.2     1.2    2.20    2.95    3.27    3.41    3.46    3.45    3.50   38.50    0.00    0.00    0.00    0.00    0.00    0.00    0.00    0.00    0.00   41.33    0.20    1.18    2.20    2.95    3.27    3.41    3.46    3.45    3.50
   17 038   107    40     1   126.3    99.0    27.3     8.6    2.85   14.73    0.01    0.33    0.15    2.52    3.69    6.30    0.00    4.96     0.2     1.2    2.20    2.95    3.27    3.41    3.46    3.45    3.50   42.34    0.00    0.00    0.00    0.00    0.00    0.00    0.00    0.00    0.00   47.30    0.20    1.19    2.20    2.95    3.27    3.41    3.46    3.45    3.50
   17 039   108    40     1   128.8   100.5    28.3     5.9    2.85   16.26    0.01    0.33    0.19    2.52    3.78    6.30    0.00    7.29     0.2     1.2    2.20    2.95    3.27    3.41    3.46    3.45    3.50   43.92    0.00    0.00    0.00    0.00    0.00    0.00    0.00    0.00    0.00   51.21    0.20    1.19    2.20    2.95    3.27    3.41    3.46    3.45    3.50
   17 040   109    40     1   130.6   102.1    28.6     4.1    2.85   17.82    0.01    0.33    0.21    2.52    3.78    6.30    0.00    9.70     0.2     1.2    2.20    2.95    3.27    3.41    3.46    3.45    3.50   44.26    0.00    0.00    0.00    0.00    0.00    0.00    0.00    0.00    0.00   53.96    0.20    1.19    2.20    2.95    3.27    3.41    3.46    3.45    3.50
   17 041   110    40     1   131.8   103.5    28.2     2.9    2.85   19.31    0.01    0.33    0.23    2.52    3.78    6.30    0.00   12.00     0.2     1.2    2.20    2.95    3.27    3.41    3.46    3.45    3.50   43.74    0.00    0.00    0.00    0.00    0.00    0.00    0.00    0.00    0.00   55.74    0.20    1.19    2.20    2.95    3.27    3.41    3.46    3.45    3.50
   17 042   111    40     1   132.5   104.9    27.6     2.2    2.85   20.66    0.01    0.33    0.25    2.52    3.78    6.30    0.00   14.08     0.2     1.2    2.20    2.95    3.27    3.41    3.46    3.45    3.50   42.78    0.00    0.00    0.00    0.00    0.00    0.00    0.00    0.00    0.00   56.86    0.20    1.19    2.20    2.95    3.27    3.41    3.46    3.45    3.50
   17 043   112    40     1   133.0   106.1    26.8     1.7    2.85   21.92    0.01    0.33    0.29    2.52    3.78    6.30    0.00   16.04     0.2     1.2    2.20    2.95    3.27    3.41    3.46    3.45    3.50   41.56    0.00    0.00    0.00    0.00    0.00    0.00    0.00    0.00    0.00   57.60    0.21    1.19    2.20    2.95    3.27    3.41    3.46    3.45    3.50
   17 044   113    40     1   133.3   107.3    26.0     1.3    2.85   23.09    0.01    0.33    0.31    2.52    3.78    6.30    0.00   17.85     0.2     1.2    2.20    2.95    3.27    3.41    3.46    3.45    3.50   40.30    0.00    0.00    0.00    0.00    0.00    0.00    0.00    0.00    0.00   58.14    0.21    1.19    2.20    2.95    3.27    3.41    3.46    3.45    3.50
   17 045   114    40     1   133.6   108.5    25.1     1.0    2.85   24.26    0.01    0.33    0.31    2.52    3.81    6.30    0.00   19.62     0.2     1.2    2.20    2.95    3.27    3.41    3.46    3.45    3.50   38.94    0.00    0.00    0.00    0.00    0.00    0.00    0.00    0.00    0.00   58.56    0.21    1.19    2.20    2.95    3.27    3.41    3.46    3.45    3.50
   17 046   115    40     1   133.6   109.5    24.1     0.7    2.85   25.42    0.01    0.33    0.31    2.52    3.98    6.30    0.00   21.30     0.2     1.2    2.19    2.94    3.27    3.40    3.46    3.45    3.49   37.37    0.00    0.00    0.00    0.00    0.00    0.00    0.00    0.00    0.00   58.67    0.21    1.19    2.20    2.95    3.27    3.40    3.46    3.45    3.50
   17 047   116    40     1   133.8   110.7    23.1     0.5    2.85   26.60    0.01    0.33    0.32    2.52    3.98    6.30    0.00   23.11     0.2     1.2    2.19    2.94    3.27    3.40    3.46    3.45    3.49   35.83    0.00    0.00    0.00    0.00    0.00    0.00    0.00    0.00    0.00   58.94    0.21    1.20    2.19    2.94    3.27    3.40    3.46    3.45    3.49
   17 048   117    40     1   133.9   111.9    22.0     0.4    2.85   27.85    0.01    0.33    0.32    2.52    4.00    6.30    0.00   23.61     0.9     1.2    2.19    2.94    3.27    3.40    3.46    3.45    3.49   34.13    0.00    0.00    0.00    0.00    0.00    0.00    0.00    0.00    0.00   57.74    0.90    1.20    2.19    2.94    3.27    3.40    3.46    3.45    3.49
   17 049   118    40     1   134.0   113.1    20.9     0.3    2.85   29.08    0.01    0.33    0.33    2.52    4.07    6.30    0.00   25.12     1.1     1.2    2.19    2.94    3.27    3.40    3.46    3.45    3.49   32.33    0.01    0.00    0.00    0.00    0.00    0.00    0.00    0.00    0.00   57.45    1.07    1.20    2.19    2.94    3.27    3.40    3.46    3.45    3.49
   17 050   119    40     1   134.0   114.2    19.7     0.2    2.85   30.26    0.01    0.33    0.33    2.52    4.16    6.30    0.00   26.91     1.1     1.2    2.20    2.94    3.26    3.40    3.45    3.44    3.49   30.54    0.01    0.00    0.00    0.00    0.00    0.00    0.00    0.00    0.00   57.46    1.07    1.23    2.20    2.94    3.26    3.40    3.45    3.44    3.49
   17 051   120    40     1   133.9   115.3    18.6     0.1    2.85   31.36    0.01    0.33    0.33    2.52    4.23    6.30    0.00   26.87     1.9     1.3    2.21    2.94    3.26    3.40    3.45    3.44    3.49   28.85    0.02    0.00    0.00    0.00    0.00    0.00    0.00    0.00    0.00   55.72    1.93    1.31    2.21    2.94    3.26    3.40    3.45    3.44    3.49
   17 052   121    40     1   133.8   116.2    17.5     0.1    2.85   32.40    0.01    0.33    0.34    2.52    4.40    6.30    0.00   23.90     3.9     1.7    2.26    2.94    3.25    3.39    3.45    3.43    3.48   27.15    0.02    0.00    0.00    0.00    0.00    0.00    0.00    0.00    0.00   51.05    3.95    1.69    2.26    2.94    3.25    3.39    3.45    3.43    3.48
   17 053   122    40     1   133.8   117.0    16.8     0.1    2.85   33.12    0.01    0.33    0.34    2.52    4.42    6.30    0.00   22.90     4.6     2.1    2.24    2.92    3.27    3.42    3.47    3.46    3.50   26.05    0.03    0.00    0.00    0.00    0.00    0.00    0.00    0.00    0.00   48.95    4.63    2.09    2.24    2.92    3.27    3.42    3.47    3.46    3.50
   17 054   123    40     1   133.7   117.9    15.8     0.0    2.87   34.15    0.01    0.33    0.35    2.54    4.54    6.30    0.00   23.49     4.9     2.3    2.25    2.89    3.26    3.41    3.47    3.46    3.50   24.38    0.03    0.00    0.00    0.00    0.00    0.00    0.00    0.00    0.00   47.87    4.93    2.27    2.25    2.89    3.26    3.41    3.47    3.46    3.50
   17 055   124    40     1   133.5   119.0    14.4     0.0    2.92   35.43    0.01    0.34    0.35    2.58    4.83    6.30    0.00   25.37     4.9     2.3    2.26    2.90    3.26    3.40    3.47    3.45    3.50   22.18    0.03    0.00    0.00    0.00    0.00    0.00    0.00    0.00    0.00   47.55    4.91    2.31    2.27    2.90    3.26    3.41    3.47    3.45    3.50
   17 056   125    40     1   133.2   120.1    13.1     0.0    2.99   36.69    0.01    0.35    0.36    2.63    5.13    6.30    0.00   27.38     4.8     2.3    2.27    2.90    3.25    3.40    3.46    3.45    3.49   20.04    0.03    0.01    0.00    0.00    0.00    0.00    0.00    0.00    0.00   47.42    4.80    2.30    2.27    2.90    3.26    3.40    3.47    3.45    3.50
   17 057   126    40     1   132.8   121.0    11.8     0.0    3.04   37.77    0.01    0.36    0.36    2.68    5.59    6.30    0.00   28.74     4.7     2.3    2.27    2.90    3.25    3.40    3.46    3.45    3.49   18.05    0.02    0.01    0.00    0.00    0.00    0.00    0.00    0.00    0.01   46.79    4.76    2.29    2.27    2.90    3.26    3.40    3.47    3.45    3.50
   17 058   127    40     1   132.6   121.8    10.8     0.0    3.08   38.71    0.01    0.37    0.37    2.72    5.80    6.30    0.00   30.06     4.7     2.3    2.27    2.90    3.25    3.40    3.46    3.45    3.50   16.48    0.01    0.01    0.00    0.00    0.00    0.00    0.01    0.00    0.01   46.54    4.71    2.29    2.27    2.90    3.26    3.40    3.47    3.45    3.50
   17 059   128    40     1   132.1   122.3     9.9     0.0    3.11   39.50    0.01    0.37    0.37    2.74    6.29    6.30    0.00   20.32     9.0     3.7    2.38    2.92    3.27    3.40    3.46    3.45    3.50   14.98    0.01    0.01    0.00    0.00    0.00    0.00    0.01    0.00    0.01   35.31    9.02    3.67    2.38    2.92    3.28    3.40    3.47    3.45    3.50
   17 060   129    40     1   132.1   122.5     9.5     0.0    3.11   39.84    0.01    0.37    0.38    2.74    6.37    6.30    0.00   16.29     9.9     5.3    2.69    2.97    3.30    3.45    3.46    3.45    3.49   14.43    0.01    0.01    0.00    0.00    0.00    0.00    0.00    0.00    0.01   30.73    9.94    5.34    2.69    2.97    3.31    3.45    3.47    3.45    3.50
   17 061   130    40     1   130.8   121.8     9.0     0.0    3.11   40.17    0.01    0.37    0.38    2.74    6.77    7.15    0.00   15.31     9.3     5.8    3.02    2.93    3.21    3.40    3.45    3.45    3.50   13.70    0.01    0.01    0.00    0.00    0.00    0.00    0.00    0.00    0.01   29.01    9.35    5.80    3.03    2.94    3.22    3.41    3.46    3.46    3.50
   17 062   131    40     1   129.9   121.6     8.3     0.0    3.12   40.67    0.01    0.37    0.39    2.75    7.37    7.45    0.00   15.95     8.9     5.7    3.16    2.94    3.19    3.38    3.45    3.45    3.49   12.54    0.01    0.01    0.00    0.00    0.00    0.00    0.00    0.00    0.00   28.49    8.90    5.71    3.16    2.95    3.19    3.38    3.45    3.45    3.50
   17 063   132    40     1   129.4   121.9     7.6     0.0    3.12   41.19    0.01    0.37    0.40    2.75    7.82    7.49    0.00   16.89     8.7     5.5    3.21    2.95    3.18    3.37    3.45    3.45    3.49   11.45    0.01    0.01    0.00    0.00    0.00    0.00    0.00    0.00    0.00   28.33    8.66    5.55    3.21    2.95    3.18    3.37    3.45    3.45    3.50
   17 064   133    40     1   128.9   122.1     6.9     0.0    3.13   41.71    0.01    0.37    0.40    2.76    8.28    7.49    0.00   17.07     8.8     5.5    3.24    2.94    3.17    3.37    3.44    3.44    3.49   10.37    0.01    0.01    0.00    0.00    0.00    0.00    0.00    0.00    0.00   27.45    8.81    5.53    3.24    2.94    3.17    3.37    3.45    3.45    3.49
   17 065   134    40     1   128.2   122.1     6.1     0.0    3.15   42.18    0.01    0.37    0.41    2.78    9.04    7.49    0.00   17.04     8.8     5.5    3.26    2.97    3.17    3.36    3.44    3.44    3.48    9.23    0.01    0.01    0.00    0.00    0.00    0.00    0.00    0.00    0.00   26.27    8.85    5.54    3.26    2.97    3.17    3.36    3.44    3.44    3.49
   17 066   135    40     1   127.7   122.2     5.5     0.0    3.17   42.61    0.01    0.37    0.41    2.80    9.54    7.49    0.00   17.46     8.7     5.5    3.29    2.97    3.18    3.37    3.46    3.44    3.48    8.31    0.01    0.00    0.00    0.00    0.00    0.00    0.00    0.00    0.00   25.77    8.70    5.47    3.30    2.97    3.18    3.37    3.46    3.44    3.49
   17 067   136    40     1   127.3   122.3     5.0     0.0    3.18   43.00    0.01    0.37    0.42    2.81    9.98    7.49    0.00   14.61     9.7     6.2    3.42    2.99    3.21    3.37    3.45    3.44    3.48    7.49    0.01    0.00    0.00    0.00    0.00    0.00    0.00    0.00    0.00   22.10    9.67    6.19    3.42    2.99    3.21    3.37    3.46    3.44    3.48
   17 068   137    40     1   126.8   122.1     4.7     0.0    3.20   43.22    0.01    0.37    0.42    2.83   10.49    7.49    0.00    8.90     9.9     8.6    4.32    3.19    3.26    3.41    3.49    3.43    3.47    6.98    0.01    0.00    0.00    0.00    0.00    0.00    0.00    0.00    0.00   15.88    9.91    8.62    4.32    3.19    3.26    3.41    3.49    3.44    3.48
   17 069   138    40     1   125.3   120.8     4.5     0.0    3.21   43.40    0.02    0.37    0.43    2.84   10.53    8.97    0.00    8.37     8.8     8.0    4.69    3.45    3.26    3.36    3.45    3.43    3.48    6.70    0.01    0.00    0.00    0.00    0.00    0.00    0.00    0.00    0.00   15.06    8.83    7.99    4.69    3.45    3.27    3.36    3.45    3.43    3.48
   17 070   139    40     1   123.6   119.7     3.9     0.0    3.22   43.65    0.02    0.37    0.43    2.85   11.51    9.69    0.00    8.38     8.1     7.4    4.80    3.55    3.29    3.35    3.43    3.42    3.47    5.79    0.00    0.00    0.00    0.00    0.00    0.00    0.00    0.00    0.00   14.17    8.13    7.42    4.80    3.55    3.29    3.35    3.43    3.43    3.48
   17 071   140    40     1   122.9   119.4     3.5     0.0    3.22   43.90    0.02    0.37    0.44    2.85   11.99    9.84    0.00    9.23     7.7     7.0    4.79    3.59    3.29    3.34    3.42    3.42    3.47    5.17    0.00    0.00    0.00    0.00    0.00    0.00    0.00    0.00    0.00   14.40    7.75    7.01    4.79    3.59    3.29    3.34    3.42    3.42    3.47
   17 072   141    40     1   122.0   119.0     3.0     0.0    3.23   44.12    0.02    0.37    0.45    2.86   12.94    9.84    0.00    9.96     7.5     6.6    4.70    3.55    3.27    3.33    3.41    3.42    3.46    4.40    0.00    0.00    0.00    0.00    0.00    0.00    0.00    0.00    0.00   14.36    7.49    6.65    4.70    3.55    3.27    3.33    3.42    3.42    3.47
   17 073   142    40     1   120.8   118.3     2.5     0.0    3.23   44.32    0.02    0.37    0.46    2.86   14.06    9.84    0.00   10.50     7.2     6.3    4.58    3.50    3.25    3.32    3.41    3.41    3.46    3.70    0.00    0.00    0.00    0.00    0.00    0.00    0.00    0.00    0.00   14.20    7.18    6.35    4.58    3.50    3.25    3.32    3.41    3.41    3.46
   17 074   143    40     1   119.8   117.6     2.2     0.0    3.23   44.47    0.02    0.37    0.47    2.86   15.12    9.84    0.00   10.75     6.9     6.1    4.48    3.46    3.23    3.31    3.40    3.40    3.45    3.15    0.00    0.00    0.00    0.00    0.00    0.00    0.00    0.00    0.00   13.90    6.91    6.10    4.48    3.46    3.23    3.31    3.40    3.40    3.45
   17 075   144    40     1   118.7   116.9     1.9     0.0    3.24   44.61    0.02    0.37    0.47    2.86   16.15    9.84    0.00   10.43     6.7     6.0    4.42    3.42    3.21    3.31    3.40    3.40    3.45    2.72    0.00    0.00    0.00    0.00    0.00    0.00    0.00    0.00    0.00   13.15    6.68    5.97    4.42    3.42    3.21    3.31    3.40    3.40    3.45
   17 076   145    40     1   116.9   115.3     1.6     0.0    3.25   44.74    0.02    0.37    0.48    2.88   18.00    9.84    0.00    9.81     6.2     5.7    4.29    3.35    3.16    3.30    3.40    3.40    3.45    2.24    0.00    0.00    0.00    0.00    0.00    0.00    0.00    0.00    0.00   12.05    6.22    5.69    4.29    3.35    3.16    3.30    3.40    3.40    3.45
   17 077   146    40     1   115.0   113.7     1.3     0.0    3.28   44.85    0.02    0.38    0.48    2.91   19.97    9.84    0.00    8.61     6.0     5.4    4.14    3.27    3.10    3.28    3.40    3.40    3.45    1.80    0.00    0.00    0.00    0.00    0.00    0.00    0.00    0.00    0.00   10.42    5.98    5.38    4.15    3.27    3.10    3.28    3.40    3.40    3.45
   17 078   147    40     1   114.2   113.0     1.1     0.0    3.32   44.95    0.02    0.38    0.48    2.94   20.79    9.84    0.00    8.15     5.8     5.3    4.11    3.25    3.08    3.28    3.40    3.40    3.45    1.49    0.00    0.00    0.00    0.00    0.00    0.00    0.00    0.00    0.00    9.64    5.85    5.31    4.11    3.25    3.09    3.28    3.41    3.40    3.46
   17 079   148    40     1   113.1   112.1     1.0     0.0    3.39   45.05    0.02    0.39    0.49    3.00   21.94    9.84    0.00    7.52     5.6     5.2    4.04    3.21    3.06    3.27    3.40    3.40    3.45    1.18    0.00    0.00    0.00    0.00    0.00    0.01    0.01    0.01    0.01    8.69    5.64    5.18    4.05    3.21    3.06    3.27    3.41    3.41    3.46
   17 080   149    40     1   111.1   110.3     0.8     0.0    3.47   45.13    0.02    0.41    0.49    3.07   23.95    9.84    0.00    6.50     5.2     4.9    3.90    3.13    3.00    3.24    3.40    3.40    3.45    0.85    0.00    0.01    0.00    0.01    0.01    0.01    0.01    0.01    0.01    7.35    5.21    4.91    3.91    3.13    3.01    3.25    3.41    3.41    3.46
   17 081   150    40     1   109.3   108.6     0.7     0.0    3.57   45.21    0.02    0.42    0.50    3.15   25.84    9.84    0.00    5.57     4.8     4.6    3.76    3.04    2.94    3.21    3.40    3.40    3.45    0.61    0.00    0.01    0.01    0.01    0.01    0.01    0.01    0.01    0.01    6.18    4.80    4.64    3.76    3.05    2.95    3.22    3.41    3.41    3.46
   17 082   151    40     1   108.5   107.8     0.7     0.0    3.65   45.28    0.02    0.42    0.50    3.22   26.75    9.84    0.00    5.10     4.6     4.5    3.69    3.00    2.91    3.20    3.40    3.40    3.45    0.48    0.00    0.01    0.01    0.01    0.01    0.01    0.01    0.01    0.01    5.58    4.62    4.51    3.70    3.02    2.92    3.21    3.42    3.41    3.47
   17 083   152    40     1   106.4   105.8     0.6     0.0    3.73   45.34    0.02    0.43    0.51    3.30   28.89    9.84    0.00    4.18     4.1     4.2    3.49    2.89    2.82    3.15    3.40    3.40    3.45    0.33    0.00    0.01    0.01    0.01    0.01    0.01    0.01    0.01    0.01    4.51    4.15    4.16    3.50    2.90    2.83    3.16    3.42    3.42    3.47
   17 084   153    40     1   105.3   104.7     0.6     0.0    3.79   45.40    0.02    0.43    0.51    3.36   30.09    9.84    0.00    3.82     3.9     3.9    3.37    2.81    2.76    3.11    3.40    3.40    3.46    0.26    0.00    0.01    0.01    0.01    0.01    0.01    0.02    0.01    0.01    4.08    3.87    3.95    3.38    2.83    2.78    3.13    3.42    3.42    3.47
   17 085   154    40     1   103.5   103.0     0.6     0.0    3.84   45.46    0.02    0.43    0.51    3.41   31.86    9.84    0.00    3.47     3.4     3.6    3.16    2.69    2.66    3.05    3.40    3.41    3.46    0.20    0.00    0.01    0.01    0.01    0.01    0.01    0.02    0.01    0.01    3.68    3.43    3.59    3.17    2.70    2.68    3.06    3.41    3.42    3.47
   17 086   155    40     1   101.8   101.3     0.5     0.0    3.88   45.51    0.02    0.43    0.52    3.45   33.60    9.84    0.00    3.32     3.0     3.2    2.93    2.54    2.55    2.96    3.38    3.41    3.46    0.17    0.00    0.01    0.01    0.01    0.01    0.01    0.02    0.01    0.01    3.49    3.01    3.22    2.94    2.55    2.56    2.97    3.40    3.42    3.47
   17 087   156    40     1   100.2    99.7     0.5     0.0    3.92   45.56    0.02    0.43    0.52    3.49   35.23    9.84    0.00    3.27     2.6     2.9    2.70    2.39    2.43    2.86    3.36    3.41    3.46    0.14    0.00    0.01    0.01    0.01    0.01    0.01    0.02    0.01    0.01    3.42    2.64    2.87    2.71    2.41    2.44    2.87    3.37    3.42    3.47
   17 088   157    40     1    98.7    98.2     0.5     0.0    3.97   45.61    0.02    0.43    0.52    3.54   36.83    9.84    0.00    3.29     2.3     2.5    2.47    2.24    2.29    2.73    3.31    3.41    3.46    0.13    0.00    0.01    0.01    0.01    0.01    0.01    0.02    0.01    0.01    3.42    2.31    2.54    2.47    2.25    2.30    2.75    3.33    3.42    3.48
   17 089   158    40     1    97.1    96.6     0.5     0.0    4.04   45.66    0.02    0.43    0.53    3.61   38.49    9.84    0.00    3.33     2.0     2.2    2.22    2.07    2.14    2.58    3.23    3.41    3.46    0.12    0.00    0.01    0.01    0.01    0.01    0.01    0.02    0.01    0.02    3.45    2.03    2.23    2.23    2.08    2.15    2.59    3.25    3.42    3.48
   17 090   159    40     1    95.4    94.9     0.5     0.0    4.13   45.71    0.02    0.43    0.53    3.70   40.26    9.84    0.00    3.37     1.8     1.9    1.98    1.89    1.97    2.39    3.10    3.41    3.46    0.10    0.00    0.01    0.01    0.01    0.01    0.01    0.02    0.02    0.02    3.47    1.78    1.95    1.99    1.90    1.98    2.40    3.12    3.43    3.48
   17 091   160    40     1    93.7    93.1     0.6     0.0    4.25   45.77    0.02    0.43    0.53    3.82   42.05    9.84    0.00    3.40     1.6     1.7    1.75    1.71    1.80    2.18    2.91    3.41    3.47    0.10    0.01    0.02    0.01    0.02    0.01    0.02    0.02    0.02    0.02    3.50    1.58    1.70    1.76    1.72    1.81    2.20    2.92    3.43    3.48
   17 092   161    40     1    92.1    91.4     0.7     0.0    4.41   45.84    0.02    0.43    0.53    3.98   43.85    9.84    0.00    3.44     1.4     1.5    1.54    1.53    1.62    1.96    2.63    3.41    3.47    0.09    0.01    0.02    0.02    0.02    0.02    0.02    0.02    0.02    0.02    3.53    1.43    1.50    1.56    1.55    1.64    1.98    2.65    3.43    3.49
   17 093   162    40     1    90.5    89.8     0.7     0.0    4.58   45.92    0.02    0.43    0.54    4.15   45.60    9.84    0.00    3.47     1.3     1.3    1.36    1.36    1.45    1.75    2.33    3.41    3.47    0.08    0.01    0.02    0.02    0.02    0.02    0.02    0.02    0.02    0.02    3.55    1.31    1.34    1.38    1.39    1.47    1.77    2.35    3.43    3.49
   17 094   163    40     1    89.0    88.2     0.8     0.0    4.76   46.01    0.02    0.43    0.54    4.33   47.32    9.84    0.00    3.37     1.2     1.2    1.20    1.21    1.30    1.55    2.03    3.39    3.47    0.07    0.02    0.03    0.02    0.03    0.02    0.02    0.02    0.03    0.03    3.44    1.21    1.20    1.22    1.24    1.32    1.57    2.05    3.42    3.50
   17 095   164    40     1    87.6    86.7     0.8     0.0    4.93   46.11    0.02    0.43    0.54    4.50   48.89    9.84    0.00    3.35     1.1     1.0    1.06    1.07    1.15    1.37    1.75    3.37    3.48    0.06    0.02    0.03    0.02    0.03    0.02    0.02    0.02    0.03    0.03    3.41    1.12    1.08    1.08    1.10    1.17    1.39    1.78    3.40    3.51
   17 096   165    40     1    86.3    85.5     0.9     0.0    5.07   46.21    0.02    0.43    0.55    4.64   50.28    9.84    0.00    3.36     1.0     0.9    0.93    0.95    1.02    1.20    1.51    3.34    3.48    0.06    0.02    0.03    0.02    0.03    0.02    0.02    0.02    0.03    0.03    3.41    1.04    0.97    0.96    0.97    1.04    1.23    1.54    3.37    3.51
   17 097   166    40     1    85.1    84.3     0.8     0.0    5.17   46.30    0.02    0.43    0.55    4.73   51.54    9.84    0.00    3.38     1.0     0.8    0.82    0.83    0.90    1.06    1.30    3.30    3.48    0.05    0.02    0.03    0.02    0.03    0.02    0.02    0.02    0.03    0.03    3.43    0.98    0.88    0.84    0.86    0.93    1.08    1.33    3.33    3.51
   17 098   167    40     1    84.1    83.3     0.8     0.0    5.24   46.38    0.02    0.43    0.55    4.81   52.68    9.84    0.00    3.40     0.9     0.8    0.72    0.74    0.80    0.93    1.12    3.26    3.49    0.05    0.02    0.03    0.02    0.02    0.02    0.02    0.02    0.03    0.03    3.44    0.91    0.79    0.75    0.76    0.82    0.95    1.14    3.29    3.51
   17 099   168    40     1    83.1    82.3     0.8     0.0    5.32   46.46    0.02    0.43    0.55    4.89   53.75    9.84    0.00    3.41     0.8     0.7    0.64    0.65    0.70    0.82    0.96    3.20    3.49    0.04    0.02    0.02    0.02    0.02    0.02    0.02    0.02    0.03    0.03    3.45    0.86    0.72    0.66    0.67    0.72    0.84    0.98    3.23    3.52
   17 100   169    40     1    82.2    81.4     0.8     0.0    5.42   46.54    0.02    0.43    0.56    4.99   54.74    9.84    0.00    3.43     0.8     0.6    0.57    0.57    0.62    0.72    0.83    3.13    3.49    0.04    0.02    0.02    0.02    0.02    0.02    0.02    0.02    0.03    0.03    3.47    0.81    0.66    0.59    0.59    0.64    0.74    0.84    3.16    3.52
   17 101   170    40     1    81.4    80.6     0.8     0.0    5.55   46.63    0.02    0.43    0.56    5.12   55.66    9.84    0.00    3.45     0.8     0.6    0.51    0.51    0.55    0.63    0.71    3.04    3.49    0.04    0.02    0.03    0.02    0.02    0.02    0.02    0.02    0.03    0.03    3.48    0.78    0.61    0.53    0.53    0.57    0.65    0.73    3.07    3.52
   17 102   171    40     1    80.7    79.9     0.8     0.0    5.70   46.72    0.02    0.43    0.56    5.27   56.52    9.84    0.00    3.46     0.7     0.6    0.46    0.45    0.49    0.56    0.62    2.94    3.50    0.03    0.03    0.03    0.02    0.03    0.02    0.02    0.02    0.03    0.03    3.49    0.75    0.58    0.48    0.48    0.51    0.58    0.64    2.96    3.53
   17 103   172    40     1    80.0    79.2     0.8     0.0    5.84   46.81    0.02    0.43    0.56    5.41   57.33    9.84    0.00    3.47     0.7     0.5    0.42    0.40    0.43    0.50    0.53    2.83    3.50    0.03    0.03    0.03    0.02    0.03    0.02    0.02    0.02    0.03    0.03    3.51    0.73    0.55    0.44    0.43    0.46    0.52    0.56    2.85    3.53
   17 104   173    40     1    79.4    78.5     0.9     0.0    5.98   46.91    0.02    0.43    0.56    5.55   58.11    9.84    0.00    3.49     0.7     0.5    0.38    0.36    0.39    0.44    0.46    2.71    3.50    0.03    0.03    0.03    0.03    0.03    0.02    0.02    0.02    0.03    0.03    3.52    0.71    0.52    0.41    0.39    0.41    0.47    0.49    2.73    3.54
   17 105   174    40     1    78.7    77.9     0.9     0.0    6.10   47.00    0.02    0.43    0.57    5.67   58.86    9.84    0.00    3.50     0.7     0.5    0.35    0.33    0.35    0.39    0.41    2.58    3.51    0.03    0.03    0.03    0.03    0.03    0.02    0.02    0.02    0.03    0.03    3.53    0.69    0.50    0.37    0.35    0.37    0.42    0.43    2.61    3.54
   17 106   175    40     1    78.1    77.3     0.9     0.0    6.21   47.09    0.02    0.43    0.57    5.77   59.56    9.84    0.00    3.51     0.6     0.4    0.32    0.29    0.31    0.35    0.35    2.46    3.51    0.03    0.03    0.03    0.03    0.03    0.02    0.02    0.02    0.03    0.03    3.54    0.67    0.48    0.35    0.32    0.33    0.37    0.37    2.49    3.54
   17 107   176    40     1    77.6    76.7     0.8     0.0    6.31   47.18    0.02    0.43    0.57    5.88   60.24    9.84    0.00    3.40     0.7     0.4    0.29    0.26    0.28    0.31    0.31    2.33    3.52    0.03    0.03    0.03    0.02    0.03    0.02    0.02    0.02    0.03    0.03    3.43    0.72    0.46    0.32    0.29    0.30    0.34    0.33    2.36    3.55
   17 108   177    40     1    75.7    74.9     0.8     0.0    6.39   47.27    0.02    0.43    0.57    5.96   62.21    9.84    0.00    1.15     0.8     0.4    0.27    0.24    0.25    0.28    0.27    2.21    3.52    0.01    0.03    0.03    0.02    0.03    0.02    0.02    0.02    0.02    0.03    1.16    0.81    0.44    0.30    0.26    0.27    0.30    0.29    2.23    3.55
   17 109   178    40     1    74.8    74.1     0.7     0.0    6.43   47.34    0.02    0.43    0.57    6.00   63.07    9.84    0.00    0.78     0.8     0.4    0.25    0.22    0.22    0.25    0.24    2.09    3.52    0.01    0.03    0.03    0.02    0.02    0.02    0.02    0.02    0.02    0.03    0.79    0.78    0.42    0.27    0.24    0.24    0.27    0.26    2.11    3.55
   17 110   179    40     1    74.0    73.3     0.7     0.0    6.44   47.41    0.02    0.43    0.58    6.01   63.97    9.84    0.00    0.42     0.7     0.4    0.23    0.20    0.20    0.22    0.22    1.98    3.52    0.00    0.02    0.02    0.02    0.02    0.02    0.02    0.01    0.02    0.03    0.42    0.70    0.40    0.25    0.21    0.22    0.24    0.23    2.00    3.55
   17 111   180    40     1    73.2    72.6     0.6     0.0    6.44   47.46    0.02    0.43    0.58    6.01   64.76    9.84    0.00    0.19     0.6     0.4    0.21    0.18    0.18    0.20    0.20    1.87    3.52    0.00    0.02    0.02    0.02    0.02    0.01    0.01    0.01    0.02    0.02    0.19    0.60    0.38    0.23    0.19    0.19    0.21    0.21    1.88    3.55
   17 112   181    40     1    72.5    72.0     0.5     0.0    6.44   47.50    0.02    0.43    0.58    6.01   65.43    9.84    0.00    0.08     0.5     0.3    0.19    0.16    0.16    0.18    0.18    1.76    3.52    0.00    0.01    0.02    0.01    0.01    0.01    0.01    0.01    0.01    0.02    0.08    0.52    0.35    0.21    0.17    0.17    0.19    0.19    1.78    3.55
   17 113   182    40     1    71.9    71.4     0.5     0.0    6.44   47.54    0.02    0.43    0.58    6.01   66.04    9.84    0.00    0.05     0.4     0.3    0.18    0.14    0.14    0.16    0.17    1.66    3.52    0.00    0.01    0.02    0.01    0.01    0.01    0.01    0.01    0.01    0.02    0.05    0.41    0.34    0.19    0.15    0.15    0.17    0.17    1.67    3.54
   17 114   183    40     1    71.3    70.9     0.4     0.0    6.44   47.58    0.02    0.43    0.58    6.01   66.61    9.84    0.00    0.03     0.3     0.3    0.17    0.13    0.13    0.14    0.15    1.56    3.52    0.00    0.01    0.01    0.01    0.01    0.01    0.01    0.01    0.01    0.02    0.03    0.32    0.32    0.18    0.14    0.14    0.15    0.16    1.57    3.54
   17 115   184    40     1    70.8    70.4     0.4     0.0    6.44   47.62    0.02    0.43    0.58    6.01   67.12    9.84    0.00    0.02     0.2     0.4    0.17    0.12    0.12    0.13    0.14    1.47    3.52    0.00    0.01    0.01    0.01    0.01    0.01    0.01    0.00    0.01    0.02    0.02    0.19    0.37    0.17    0.12    0.12    0.13    0.15    1.48    3.54
   17 116   185    40     1    70.3    70.0     0.3     0.0    6.45   47.65    0.02    0.43    0.58    6.02   67.64    9.84    0.00    0.01     0.1     0.2    0.19    0.11    0.10    0.11    0.13    1.38    3.52    0.00    0.00    0.01    0.01    0.01    0.01    0.01    0.00    0.01    0.02    0.01    0.13    0.22    0.20    0.11    0.11    0.12    0.13    1.39    3.54
   17 117   186    40     1    69.8    69.5     0.3     0.0    6.45   47.68    0.02    0.43    0.58    6.02   68.08    9.84    0.00    0.00     0.1     0.1    0.15    0.14    0.10    0.10    0.11    1.29    3.53    0.00    0.00    0.01    0.01    0.01    0.00    0.00    0.00    0.01    0.01    0.01    0.08    0.14    0.16    0.14    0.11    0.11    0.12    1.30    3.54
   17 118   187    40     1    69.5    69.2     0.3     0.0    6.45   47.70    0.02    0.43    0.58    6.02   68.47    9.84    0.00    0.00     0.1     0.1    0.13    0.12    0.10    0.10    0.10    1.21    3.53    0.00    0.00    0.01    0.00    0.00    0.00    0.00    0.00    0.01    0.01    0.00    0.06    0.11    0.14    0.12    0.11    0.10    0.10    1.21    3.54
   17 119   188    40     1    68.2    68.0     0.2     0.0    6.45   47.72    0.02    0.43    0.58    6.02   68.82   10.76    0.00    0.00     0.0     0.1    0.10    0.10    0.08    0.09    0.10    1.01    3.26    0.00    0.00    0.01    0.00    0.00    0.00    0.00    0.00    0.01    0.01    0.00    0.04    0.08    0.11    0.10    0.09    0.09    0.10    1.01    3.28
   17 120   189    40     1    66.4    66.2     0.2     0.0    6.45   47.74    0.02    0.43    0.58    6.02   69.19   12.18    0.00    0.00     0.0     0.0    0.08    0.08    0.07    0.07    0.08    0.84    3.00    0.00    0.00    0.00    0.00    0.00    0.00    0.00    0.00    0.00    0.01    0.00    0.03    0.05    0.08    0.08    0.07    0.07    0.08    0.85    3.01
   17 121   190    40     1    66.1    65.9     0.2     0.0    6.45   47.76    0.02    0.43    0.58    6.02   69.52   12.18    0.00    0.00     0.0     0.0    0.06    0.06    0.05    0.05    0.07    0.79    3.00    0.00    0.00    0.00    0.00    0.00    0.00    0.00    0.00    0.00    0.01    0.00    0.02    0.03    0.06    0.06    0.06    0.05    0.07    0.79    3.01
   17 122   191    40     1    63.4    63.3     0.2     0.0    6.45   47.78    0.02    0.43    0.58    6.02   69.78   14.56    0.00    0.00     0.0     0.0    0.04    0.05    0.04    0.04    0.05    0.61    2.59    0.00    0.00    0.00    0.00    0.00    0.00    0.00    0.00    0.00    0.01    0.00    0.01    0.02    0.04    0.05    0.04    0.04    0.05    0.62    2.60
   17 123   192    40     1    62.2    62.0     0.2     0.0    6.51   47.79    0.02    0.43    0.58    6.07   70.01   15.66    0.00    0.00     0.0     0.0    0.03    0.03    0.03    0.03    0.04    0.52    2.40    0.01    0.00    0.01    0.00    0.00    0.00    0.00    0.00    0.00    0.01    0.01    0.01    0.02    0.03    0.04    0.04    0.04    0.04    0.53    2.42
   17 124   193    40     1    61.6    61.3     0.3     0.0    6.61   47.81    0.02    0.43    0.58    6.18   70.21   16.12    0.00    0.00     0.0     0.0    0.02    0.02    0.03    0.03    0.03    0.46    2.33    0.01    0.01    0.01    0.01    0.01    0.01    0.01    0.01    0.01    0.01    0.01    0.01    0.02    0.03    0.03    0.03    0.03    0.04    0.47    2.34
   17 125   194    40     1    61.4    61.0     0.3     0.0    6.73   47.84    0.02    0.43    0.58    6.29   70.40   16.28    0.00    0.00     0.0     0.0    0.01    0.02    0.02    0.02    0.03    0.42    2.30    0.01    0.01    0.01    0.01    0.01    0.01    0.01    0.01    0.01    0.01    0.02    0.02    0.02    0.02    0.03    0.03    0.03    0.04    0.43    2.32
   17 126   195    40     1    61.3    60.9     0.4     0.0    6.87   47.88    0.02    0.43    0.58    6.43   70.59   16.28    0.00    0.00     0.0     0.0    0.01    0.01    0.02    0.02    0.02    0.39    2.30    0.02    0.02    0.01    0.01    0.01    0.01    0.01    0.01    0.01    0.02    0.02    0.02    0.02    0.02    0.03    0.03    0.03    0.03    0.40    2.32
   17 127   196    40     1    61.3    60.8     0.5     0.0    7.04   47.92    0.02    0.43    0.58    6.61   70.78   16.28    0.00    0.00     0.0     0.0    0.01    0.01    0.01    0.01    0.02    0.36    2.30    0.02    0.02    0.02    0.02    0.02    0.01    0.01    0.01    0.01    0.02    0.02    0.02    0.02    0.02    0.03    0.03    0.03    0.04    0.37    2.32
   17 128   197    40     1    61.3    60.7     0.6     0.0    7.22   47.97    0.02    0.43    0.58    6.79   70.96   16.28    0.00    0.00     0.0     0.0    0.01    0.01    0.01    0.01    0.02    0.33    2.29    0.03    0.03    0.02    0.02    0.02    0.02    0.02    0.02    0.02    0.02    0.03    0.03    0.02    0.02    0.03    0.03    0.03    0.04    0.35    2.31
   17 129   198    40     1    59.6    58.9     0.7     0.0    7.40   48.03    0.02    0.43    0.58    6.97   71.14   17.98    0.00    0.00     0.0     0.0    0.01    0.01    0.01    0.01    0.01    0.26    2.02    0.04    0.03    0.03    0.02    0.02    0.02    0.02    0.02    0.02    0.02    0.04    0.04    0.03    0.03    0.03    0.03    0.03    0.03    0.28    2.04
   17 130   199    40     1    58.7    58.1     0.7     0.0    7.56   48.10    0.02    0.43    0.58    7.13   71.32   18.82    0.00    0.00     0.0     0.0    0.01    0.01    0.01    0.01    0.01    0.23    1.89    0.03    0.03    0.03    0.02    0.02    0.02    0.02    0.02    0.02    0.03    0.04    0.04    0.03    0.03    0.03    0.03    0.03    0.03    0.25    1.92
   17 131   200    40     1    58.4    57.7     0.7     0.0    7.70   48.17    0.02    0.43    0.58    7.27   71.51   19.13    0.00    0.00     0.0     0.0    0.00    0.01    0.01    0.01    0.01    0.21    1.84    0.02    0.03    0.03    0.02    0.02    0.02    0.02    0.02    0.02    0.03    0.03    0.03    0.03    0.02    0.03    0.03    0.03    0.03    0.23    1.86
   17 132   201    40     1    58.3    57.6     0.7     0.0    7.84   48.24    0.02    0.43    0.58    7.41   71.70   19.17    0.00    0.00     0.0     0.0    0.00    0.01    0.01    0.01    0.01    0.19    1.82    0.02    0.03    0.02    0.02    0.02    0.02    0.02    0.02    0.02    0.03    0.02    0.03    0.03    0.02    0.03    0.03    0.03    0.03    0.21    1.85
   17 133   202    40     1    58.3    57.6     0.7     0.0    8.02   48.31    0.02    0.43    0.58    7.59   71.88   19.17    0.00    0.00     0.0     0.0    0.00    0.01    0.01    0.01    0.01    0.18    1.81    0.02    0.03    0.02    0.02    0.02    0.02    0.02    0.02    0.02    0.03    0.02    0.03    0.03    0.02    0.03    0.03    0.03    0.03    0.20    1.84
   17 134   203    40     1    58.3    57.5     0.8     0.0    8.25   48.40    0.02    0.43    0.58    7.82   72.08   19.17    0.00    0.00     0.0     0.0    0.01    0.01    0.01    0.01    0.01    0.17    1.80    0.03    0.03    0.02    0.02    0.02    0.02    0.02    0.02    0.02    0.03    0.03    0.03    0.03    0.03    0.03    0.03    0.03    0.03    0.19    1.83
   17 135   204    40     1    58.4    57.5     0.9     0.0    8.53   48.50    0.02    0.43    0.58    8.10   72.26   19.17    0.00    0.00     0.0     0.0    0.01    0.01    0.01    0.01    0.01    0.16    1.78    0.04    0.04    0.03    0.03    0.03    0.03    0.03    0.02    0.03    0.03    0.05    0.05    0.04    0.03    0.04    0.03    0.03    0.04    0.18    1.81
   17 136   205    40     1    56.4    55.4     1.1     0.0    8.84   48.62    0.02    0.43    0.58    8.41   72.45   21.26    0.00    0.01     0.0     0.0    0.01    0.01    0.01    0.01    0.01    0.12    1.50    0.06    0.06    0.05    0.04    0.04    0.03    0.03    0.03    0.03    0.04    0.06    0.06    0.05    0.04    0.04    0.04    0.04    0.04    0.15    1.54
   17 137   206    40     1    55.6    54.5     1.1     0.0    9.17   48.75    0.02    0.43    0.58    8.74   72.69   22.19    0.00    0.01     0.0     0.0    0.01    0.01    0.01    0.01    0.01    0.11    1.38    0.06    0.06    0.05    0.04    0.04    0.03    0.03    0.03    0.03    0.04    0.06    0.07    0.06    0.05    0.05    0.04    0.04    0.04    0.14    1.42
   17 138   207    40     1    55.4    54.2     1.2     0.0    9.49   48.90    0.02    0.43    0.58    9.06   72.96   22.47    0.00    0.01     0.0     0.0    0.01    0.01    0.01    0.01    0.01    0.10    1.33    0.05    0.06    0.05    0.04    0.04    0.03    0.03    0.03    0.03    0.04    0.05    0.07    0.06    0.05    0.05    0.04    0.04    0.05    0.14    1.38
   17 139   208    40     1    55.4    54.2     1.2     0.0    9.84   49.06    0.02    0.43    0.58    9.41   73.25   22.47    0.00    0.00     0.0     0.0    0.01    0.01    0.01    0.01    0.01    0.10    1.32    0.04    0.06    0.04    0.04    0.04    0.03    0.03    0.03    0.04    0.05    0.05    0.07    0.05    0.05    0.05    0.05    0.05    0.05    0.14    1.36
   17 140   209    40     1    55.5    54.2     1.3     0.0   10.20   49.23    0.02    0.43    0.58    9.77   73.54   22.47    0.00    0.00     0.0     0.0    0.01    0.01    0.01    0.01    0.02    0.10    1.29    0.05    0.06    0.04    0.04    0.04    0.04    0.04    0.04    0.04    0.05    0.05    0.07    0.05    0.05    0.05    0.05    0.05    0.05    0.14    1.34
   17 141   210    40     1    55.6    54.3     1.3     0.0   10.55   49.41    0.02    0.43    0.58   10.12   73.84   22.47    0.00    0.01     0.0     0.0    0.01    0.01    0.01    0.01    0.02    0.09    1.27    0.05    0.06    0.04    0.04    0.04    0.04    0.04    0.04    0.04    0.05    0.06    0.07    0.05    0.05    0.06    0.05    0.05    0.05    0.13    1.32
[...]
   17 167   236     0     0    57.8    55.7     2.1     0.0   22.18   25.07    0.01    0.36    0.00   21.81   43.96   22.56    0.00    0.24     0.2     0.2    0.17    0.17    0.15    0.16    0.19    0.29    0.96    0.20    0.21    0.08    0.08    0.08    0.07    0.07    0.07    0.06    0.06    0.45    0.46    0.27    0.25    0.25    0.22    0.23    0.25    0.34    1.02
   17 168   237     0     0    57.7    55.6     2.2     0.0   22.68   25.48    0.01    0.36    0.00   22.32   44.54   22.56    0.00    0.27     0.3     0.2    0.18    0.18    0.16    0.17    0.19    0.28    0.94    0.21    0.21    0.08    0.08    0.08    0.07    0.07    0.07    0.06    0.06    0.48    0.48    0.28    0.26    0.25    0.23    0.24    0.26    0.34    1.00
   17 169   238     0     0    57.6    55.5     2.2     0.0   23.15   25.88    0.01    0.36    0.00   22.79   45.12   22.56    0.00    0.30     0.3     0.2    0.19    0.18    0.17    0.17    0.19    0.28    0.91    0.22    0.21    0.08    0.08    0.08    0.07    0.07    0.07    0.06    0.06    0.51    0.50    0.29    0.27    0.26    0.23    0.24    0.26    0.34    0.97
   17 170   239     0     0    57.5    55.3     2.2     0.0   23.59   26.26    0.01    0.36    0.00   23.22   45.70   22.56    0.00    0.33     0.3     0.2    0.20    0.19    0.17    0.18    0.20    0.28    0.89    0.22    0.21    0.08    0.07    0.08    0.07    0.07    0.07    0.06    0.06    0.55    0.51    0.30    0.27    0.27    0.24    0.25    0.27    0.34    0.95
   17 171   240     0     0    57.3    55.2     2.1     0.0   24.03   26.65    0.01    0.36    0.00   23.67   46.27   22.56    0.00    0.37     0.3     0.2    0.21    0.20    0.18    0.18    0.20    0.28    0.86    0.21    0.21    0.07    0.07    0.08    0.07    0.07    0.07    0.06    0.06    0.59    0.52    0.31    0.28    0.28    0.25    0.25    0.27    0.34    0.92
   17 172   241     0     0    57.2    55.1     2.1     0.0   24.47   27.05    0.01    0.36    0.00   24.11   46.85   22.56    0.00    0.41     0.3     0.2    0.22    0.21    0.18    0.19    0.21    0.28    0.84    0.21    0.20    0.07    0.07    0.08    0.07    0.07    0.07    0.06    0.06    0.63    0.54    0.32    0.29    0.28    0.25    0.26    0.28    0.34    0.90
   17 173   242     0     0    57.1    55.0     2.1     0.0   24.94   27.47    0.01    0.36    0.00   24.58   47.42   22.56    0.00    0.46     0.4     0.3    0.23    0.22    0.19    0.20    0.21    0.28    0.82    0.21    0.20    0.07    0.07    0.07    0.07    0.07    0.07    0.06    0.06    0.66    0.56    0.33    0.30    0.29    0.26    0.26    0.28    0.34    0.88
   17 174   243     0     0    57.0    54.9     2.1     0.0   25.48   27.93    0.01    0.36    0.00   25.12   48.03   22.56    0.00    0.46     0.4     0.3    0.24    0.23    0.20    0.21    0.22    0.28    0.81    0.22    0.20    0.07    0.07    0.07    0.07    0.07    0.07    0.06    0.06    0.69    0.59    0.34    0.31    0.30    0.27    0.27    0.29    0.34    0.87
   17 175   244     0     0    57.0    54.9     2.2     0.0   26.05   28.45    0.01    0.36    0.00   25.69   48.62   22.56    0.00    0.50     0.4     0.3    0.26    0.25    0.21    0.22    0.23    0.29    0.79    0.23    0.19    0.06    0.07    0.07    0.06    0.07    0.07    0.06    0.06    0.73    0.62    0.36    0.32    0.32    0.28    0.28    0.30    0.35    0.85
   17 176   245     0     0    57.0    54.8     2.2     0.0   26.62   28.97    0.01    0.36    0.00   26.25   49.20   22.56    0.00    0.56     0.5     0.3    0.27    0.26    0.23    0.23    0.24    0.29    0.78    0.23    0.18    0.06    0.06    0.07    0.06    0.07    0.07    0.06    0.06    0.79    0.65    0.37    0.34    0.33    0.29    0.29    0.31    0.35    0.84
   17 177   246     0     0    56.9    54.8     2.1     0.0   27.15   29.46    0.01    0.36    0.00   26.79   49.80   22.56    0.00    0.61     0.5     0.3    0.28    0.27    0.24    0.24    0.25    0.29    0.76    0.23    0.18    0.06    0.06    0.07    0.06    0.07    0.07    0.06    0.06    0.84    0.67    0.38    0.35    0.34    0.30    0.30    0.32    0.36    0.83
   17 178   247     0     0    56.8    54.6     2.1     0.0   27.70   29.94    0.01    0.36    0.00   27.34   50.49   22.56    0.00    0.42     0.6     0.3    0.30    0.28    0.25    0.25    0.26    0.30    0.75    0.24    0.17    0.06    0.06    0.07    0.06    0.07    0.07    0.06    0.07    0.66    0.75    0.39    0.36    0.35    0.31    0.31    0.32    0.36    0.82
   17 179   248     0     0    56.7    54.5     2.2     0.0   28.26   30.40    0.01    0.36    0.00   27.90   51.14   22.56    0.00    0.36     0.6     0.5    0.30    0.29    0.25    0.25    0.27    0.31    0.75    0.27    0.18    0.05    0.06    0.07    0.06    0.06    0.07    0.06    0.07    0.64    0.75    0.52    0.36    0.36    0.32    0.32    0.33    0.37    0.81
   17 180   249     0     0    56.5    54.3     2.2     0.0   28.85   30.85    0.01    0.36    0.00   28.48   51.88   22.56    0.00    0.39     0.5     0.5    0.31    0.30    0.26    0.26    0.27    0.32    0.74    0.31    0.21    0.06    0.06    0.07    0.06    0.06    0.07    0.06    0.07    0.69    0.70    0.58    0.37    0.36    0.32    0.33    0.34    0.38    0.81
   17 181   250     0     0    56.3    54.1     2.3     0.0   29.43   31.29    0.01    0.36    0.00   29.06   52.66   22.56    0.00    0.40     0.4     0.5    0.32    0.30    0.27    0.27    0.28    0.32    0.74    0.31    0.23    0.08    0.06    0.06    0.06    0.06    0.06    0.06    0.07    0.71    0.65    0.59    0.38    0.37    0.33    0.33    0.35    0.38    0.80
   17 182   251     0     0    56.0    53.8     2.2     0.0   30.02   31.74    0.01    0.36    0.00   29.65   53.56   22.56    0.00    0.39     0.4     0.4    0.33    0.31    0.28    0.28    0.29    0.33    0.74    0.27    0.23    0.08    0.06    0.06    0.06    0.06    0.06    0.06    0.07    0.67    0.60    0.53    0.39    0.37    0.33    0.34    0.35    0.39    0.80
   17 183   252     0     0    55.7    53.5     2.2     0.0   30.56   32.17    0.01    0.36    0.00   30.20   54.39   22.56    0.00    0.38     0.3     0.4    0.33    0.31    0.28    0.28    0.30    0.34    0.73    0.26    0.23    0.09    0.05    0.06    0.06    0.06    0.06    0.06    0.07    0.63    0.56    0.48    0.39    0.38    0.34    0.35    0.36    0.40    0.80
   17 184   253     0     0    55.5    53.3     2.2     0.0   31.06   32.58    0.01    0.36    0.00   30.70   55.16   22.56    0.00    0.35     0.3     0.3    0.34    0.32    0.29    0.29    0.30    0.34    0.72    0.25    0.22    0.09    0.05    0.06    0.06    0.06    0.06    0.06    0.06    0.60    0.53    0.43    0.40    0.38    0.35    0.35    0.37    0.40    0.79
   17 185   254     0     0    55.2    53.1     2.2     0.0   31.53   32.96    0.01    0.36    0.00   31.17   55.88   22.56    0.00    0.35     0.3     0.3    0.35    0.33    0.30    0.30    0.31    0.34    0.71    0.25    0.22    0.09    0.05    0.06    0.06    0.06    0.06    0.06    0.06    0.60    0.50    0.38    0.40    0.39    0.35    0.36    0.37    0.40    0.77
   17 186   255     0     0    55.0    52.9     2.1     0.0   32.00   33.35    0.01    0.36    0.00   31.64   56.57   22.56    0.00    0.37     0.3     0.3    0.36    0.34    0.30    0.30    0.31    0.34    0.70    0.25    0.22    0.09    0.05    0.06    0.06    0.06    0.06    0.06    0.06    0.62    0.48    0.35    0.41    0.40    0.36    0.36    0.37    0.40    0.76
   17 187   256     0     0    54.8    52.7     2.1     0.0   32.48   33.75    0.01    0.36    0.00   32.12   57.22   22.56    0.00    0.40     0.3     0.2    0.37    0.35    0.31    0.31    0.32    0.35    0.69    0.25    0.22    0.09    0.05    0.06    0.05    0.06    0.06    0.06    0.06    0.65    0.47    0.32    0.42    0.41    0.36    0.37    0.38    0.40    0.75
   17 188   257     0     0    54.7    52.6     2.1     0.0   32.99   34.17    0.01    0.36    0.00   32.63   57.84   22.56    0.00    0.45     0.3     0.2    0.38    0.36    0.32    0.32    0.33    0.35    0.68    0.24    0.22    0.09    0.05    0.06    0.05    0.06    0.06    0.06    0.06    0.69    0.47    0.31    0.43    0.42    0.37    0.38    0.38    0.41    0.74
   17 189   258     0     0    54.6    52.5     2.1     0.0   33.53   34.63    0.01    0.36    0.00   33.17   58.44   22.56    0.00    0.50     0.3     0.2    0.39    0.37    0.33    0.33    0.33    0.35    0.67    0.24    0.22    0.09    0.05    0.06    0.05    0.06    0.06    0.06    0.06    0.74    0.48    0.30    0.44    0.43    0.38    0.38    0.39    0.41    0.74
   17 190   259     0     0    54.6    52.5     2.1     0.0   34.10   35.12    0.01    0.36    0.00   33.74   59.03   22.56    0.00    0.21     0.4     0.3    0.43    0.38    0.34    0.34    0.34    0.36    0.67    0.23    0.23    0.10    0.05    0.05    0.05    0.06    0.06    0.06    0.06    0.44    0.59    0.40    0.47    0.44    0.39    0.39    0.40    0.41    0.73
   17 191   260     0     0    54.7    52.4     2.2     0.0   34.74   35.59    0.01    0.36    0.00   34.37   59.62   22.56    0.00    0.23     0.3     0.4    0.47    0.39    0.34    0.34    0.35    0.37    0.67    0.28    0.26    0.11    0.05    0.05    0.05    0.06    0.06    0.06    0.06    0.51    0.59    0.48    0.52    0.44    0.40    0.40    0.41    0.42    0.74
   17 192   261     0     0    54.7    52.4     2.3     0.0   35.39   36.08    0.01    0.36    0.00   35.03   60.23   22.56    0.00    0.26     0.3     0.4    0.49    0.39    0.35    0.35    0.36    0.38    0.68    0.32    0.28    0.13    0.06    0.05    0.05    0.06    0.06    0.06    0.06    0.59    0.60    0.51    0.56    0.44    0.40    0.41    0.42    0.43    0.74
   17 193   262     0     0    54.7    52.3     2.4     0.0   36.04   36.58    0.01    0.36    0.00   35.67   60.91   22.56    0.00    0.30     0.3     0.4    0.49    0.40    0.36    0.36    0.37    0.38    0.68    0.33    0.28    0.14    0.07    0.05    0.05    0.05    0.06    0.06    0.06    0.63    0.60    0.53    0.56    0.45    0.41    0.42    0.42    0.44    0.74
   17 194   263     0     0    54.6    52.2     2.4     0.0   36.66   37.08    0.01    0.36    0.00   36.30   61.65   22.56    0.00    0.33     0.3     0.4    0.42    0.46    0.37    0.37    0.37    0.39    0.68    0.34    0.28    0.15    0.08    0.05    0.05    0.05    0.06    0.06    0.06    0.67    0.59    0.51    0.50    0.51    0.41    0.42    0.43    0.45    0.75
   17 195   264     0     0    54.3    52.0     2.3     0.0   37.24   37.54    0.01    0.36    0.00   36.88   62.49   22.56    0.00    0.29     0.3     0.4    0.40    0.46    0.37    0.37    0.38    0.40    0.69    0.29    0.26    0.14    0.08    0.06    0.05    0.05    0.06    0.06    0.06    0.58    0.56    0.50    0.48    0.52    0.42    0.43    0.44    0.46    0.75
   17 196   265     0     0    54.1    51.8     2.3     0.0   37.76   37.95    0.01    0.36    0.00   37.39   63.18   22.56    0.00    0.31     0.3     0.3    0.35    0.50    0.37    0.38    0.39    0.41    0.69    0.31    0.25    0.13    0.08    0.06    0.05    0.05    0.05    0.05    0.06    0.62    0.53    0.45    0.43    0.56    0.42    0.43    0.44    0.46    0.75
   17 197   266     0     0    53.8    51.6     2.2     0.0   38.25   38.34    0.02    0.36    0.00   37.88   63.96   22.56    0.00    0.32     0.3     0.3    0.32    0.48    0.38    0.38    0.39    0.41    0.69    0.28    0.23    0.12    0.08    0.07    0.05    0.05    0.05    0.05    0.06    0.60    0.50    0.41    0.40    0.55    0.42    0.44    0.44    0.47    0.75
   17 198   267     0     0    53.5    51.4     2.2     0.0   38.71   38.71    0.02    0.36    0.00   38.35   64.71   22.56    0.00    0.34     0.2     0.3    0.30    0.45    0.38    0.39    0.39    0.42    0.69    0.25    0.22    0.11    0.08    0.07    0.04    0.05    0.05    0.05    0.06    0.60    0.46    0.37    0.38    0.53    0.43    0.44    0.45    0.47    0.76
   17 199   268     0     0    53.3    51.2     2.1     0.0   39.16   39.07    0.02    0.36    0.00   38.80   65.40   22.56    0.00    0.33     0.2     0.2    0.27    0.43    0.39    0.39    0.40    0.42    0.69    0.25    0.21    0.10    0.08    0.08    0.04    0.05    0.05    0.05    0.06    0.57    0.45    0.33    0.35    0.51    0.43    0.44    0.45    0.47    0.75
   17 200   269     0     0    53.2    51.0     2.1     0.0   39.64   39.46    0.02    0.36    0.00   39.28   66.04   22.56    0.00    0.33     0.2     0.2    0.25    0.41    0.39    0.40    0.41    0.43    0.69    0.25    0.21    0.10    0.08    0.08    0.04    0.05    0.05    0.05    0.06    0.58    0.44    0.31    0.33    0.49    0.44    0.45    0.46    0.48    0.75
   17 201   270     0     0    53.2    51.1     2.2     0.0   40.19   39.89    0.02    0.36    0.00   39.83   66.52   22.56    0.00    0.37     0.2     0.2    0.24    0.40    0.40    0.41    0.41    0.43    0.69    0.25    0.22    0.10    0.08    0.08    0.04    0.05    0.05    0.05    0.06    0.62    0.46    0.30    0.32    0.49    0.44    0.46    0.47    0.48    0.75
   17 202   271     0     0    53.8    51.5     2.2     0.0   40.77   40.37    0.02    0.36    0.00   40.41   66.52   22.56    0.00    0.43     0.3     0.2    0.26    0.42    0.41    0.42    0.43    0.44    0.70    0.26    0.24    0.11    0.09    0.09    0.04    0.05    0.05    0.05    0.06    0.69    0.53    0.34    0.35    0.51    0.45    0.47    0.48    0.49    0.76
   17 203   272     0     0    54.4    52.1     2.3     0.0   41.38   40.92    0.02    0.36    0.00   41.02   66.52   22.56    0.00    0.50     0.4     0.3    0.28    0.45    0.42    0.43    0.44    0.46    0.71    0.26    0.26    0.12    0.10    0.10    0.04    0.05    0.05    0.05    0.06    0.76    0.62    0.37    0.39    0.55    0.46    0.48    0.49    0.51    0.78
   17 204   273     0     0    55.0    52.7     2.4     0.0   42.03   41.50    0.02    0.36    0.00   41.67   66.52   22.56    0.00    0.58     0.4     0.3    0.31    0.47    0.43    0.45    0.45    0.47    0.73    0.29    0.27    0.13    0.11    0.10    0.04    0.05    0.05    0.05    0.06    0.87    0.70    0.41    0.42    0.58    0.47    0.49    0.50    0.52    0.79
   17 205   274     0     0    55.7    53.3     2.4     0.0   42.67   42.09    0.02    0.36    0.00   42.31   66.52   22.56    0.00    0.63     0.5     0.3    0.34    0.50    0.44    0.46    0.47    0.48    0.75    0.30    0.28    0.13    0.11    0.11    0.04    0.05    0.05    0.05    0.06    0.93    0.80    0.45    0.45    0.61    0.49    0.50    0.52    0.54    0.81
   17 206   275     0     0    56.3    53.8     2.5     0.0   43.25   42.63    0.02    0.36    0.00   42.89   66.52   22.56    0.00    0.34     0.6     0.5    0.42    0.55    0.45    0.47    0.48    0.49    0.76    0.33    0.29    0.14    0.12    0.11    0.04    0.05    0.05    0.05    0.06    0.67    0.88    0.67    0.54    0.66    0.49    0.52    0.53    0.55    0.82
   17 207   276     0     0    56.8    54.2     2.6     0.0   43.77   43.07    0.02    0.36    0.00   43.41   66.52   22.56    0.00    0.25     0.4     0.6    0.42    0.65    0.66    0.48    0.49    0.51    0.78    0.37    0.32    0.15    0.12    0.11    0.04    0.05    0.05    0.05    0.06    0.62    0.74    0.77    0.54    0.76    0.70    0.52    0.54    0.56    0.84
   17 208   277     0     0    57.3    54.6     2.6     0.0   44.25   43.45    0.02    0.36    0.00   43.88   66.52   22.56    0.00    0.24     0.4     0.6    0.45    0.62    0.73    0.54    0.49    0.52    0.79    0.40    0.34    0.16    0.13    0.13    0.05    0.05    0.05    0.05    0.06    0.64    0.75    0.72    0.58    0.75    0.78    0.59    0.54    0.57    0.85
   17 209   278     0     0    57.7    55.0     2.7     0.0   44.68   43.82    0.02    0.36    0.00   44.32   66.52   22.56    0.00    0.30     0.4     0.5    0.44    0.55    0.64    0.65    0.70    0.53    0.81    0.42    0.35    0.17    0.14    0.13    0.06    0.05    0.05    0.05    0.06    0.72    0.75    0.65    0.58    0.68    0.70    0.70    0.75    0.58    0.87
   17 210   279     0     0    58.1    55.4     2.7     0.0   45.13   44.24    0.02    0.36    0.00   44.77   66.52   22.56    0.00    0.45     0.4     0.5    0.44    0.53    0.62    0.66    0.76    0.57    0.82    0.42    0.35    0.17    0.15    0.14    0.07    0.06    0.06    0.05    0.06    0.87    0.78    0.64    0.58    0.67    0.69    0.71    0.82    0.62    0.88
   17 211   280     0     0    58.6    55.9     2.8     0.0   45.63   44.72    0.02    0.36    0.00   45.27   66.52   22.56    0.00    0.64     0.5     0.5    0.46    0.55    0.63    0.68    0.77    0.58    0.84    0.42    0.35    0.17    0.15    0.14    0.08    0.06    0.06    0.05    0.06    1.06    0.83    0.66    0.61    0.69    0.71    0.74    0.83    0.64    0.90
   17 212   281     0     0    59.2    56.4     2.8     0.0   46.20   45.27    0.02    0.36    0.00   45.84   66.52   22.56    0.00    0.89     0.5     0.5    0.49    0.57    0.64    0.70    0.78    0.60    0.86    0.42    0.34    0.17    0.14    0.14    0.09    0.07    0.07    0.05    0.06    1.31    0.87    0.69    0.64    0.71    0.73    0.77    0.85    0.65    0.93
   17 213   282     0     0    59.9    57.1     2.8     0.0   46.85   45.92    0.02    0.36    0.00   46.49   66.52   22.56    0.00    0.97     0.7     0.6    0.53    0.61    0.66    0.72    0.79    0.62    0.89    0.41    0.33    0.16    0.14    0.14    0.09    0.08    0.08    0.05    0.06    1.38    1.00    0.75    0.67    0.74    0.75    0.79    0.87    0.67    0.95
   17 214   283     0     0    60.6    57.8     2.8     0.0   47.57   46.63    0.02    0.36    0.00   47.21   66.52   22.56    0.00    1.21     0.7     0.6    0.59    0.65    0.68    0.74    0.81    0.63    0.91    0.42    0.33    0.16    0.14    0.13    0.09    0.08    0.08    0.05    0.06    1.64    1.05    0.79    0.72    0.78    0.78    0.82    0.89    0.69    0.97
   17 215   284     0     0    61.3    58.6     2.8     0.0   48.34   47.41    0.02    0.36    0.00   47.98   66.52   22.56    0.00    1.34     0.9     0.7    0.64    0.68    0.71    0.76    0.83    0.65    0.94    0.41    0.32    0.15    0.13    0.13    0.10    0.09    0.09    0.05    0.06    1.75    1.18    0.88    0.77    0.81    0.80    0.85    0.91    0.71    1.00
   17 216   285     0     0    62.1    59.3     2.8     0.0   49.14   48.19    0.02    0.36    0.00   48.77   66.52   22.56    0.00    1.49     0.9     0.8    0.69    0.74    0.75    0.79    0.85    0.67    0.96    0.44    0.31    0.15    0.13    0.12    0.10    0.09    0.09    0.05    0.06    1.92    1.24    0.92    0.82    0.86    0.85    0.88    0.94    0.72    1.02
   17 217   286     0     0    62.9    60.2     2.8     0.0   49.93   49.01    0.02    0.36    0.00   49.56   66.52   22.56    0.00    1.81     1.0     0.8    0.73    0.77    0.78    0.81    0.88    0.69    0.98    0.42    0.30    0.15    0.12    0.12    0.10    0.09    0.09    0.05    0.06    2.23    1.31    0.95    0.85    0.89    0.87    0.91    0.97    0.74    1.04
   17 218   287     0     0    63.7    61.0     2.7     0.0   50.71   49.82    0.02    0.36    0.00   50.35   66.52   22.56    0.00    2.28     1.0     0.8    0.76    0.80    0.80    0.84    0.90    0.71    1.00    0.40    0.30    0.14    0.12    0.12    0.10    0.09    0.09    0.05    0.06    2.68    1.33    0.99    0.88    0.92    0.90    0.93    0.99    0.76    1.06
   17 219   288     0     0    64.4    61.7     2.7     0.0   51.43   50.55    0.02    0.36    0.00   51.06   66.52   22.56    0.00    2.41     1.1     0.9    0.80    0.84    0.83    0.87    0.92    0.72    1.02    0.38    0.29    0.14    0.12    0.12    0.10    0.09    0.09    0.05    0.06    2.80    1.40    1.02    0.92    0.96    0.93    0.96    1.02    0.78    1.08
