*SOIL ORGANIC N BALANCE

*DSSAT Cropping System Model Ver. 4.8.5.000 -release  NOV 27, 2025 15:48:48

*RUN   1        : 1                         WHAPS048 TUDU1701    1
 MODEL          : WHAPS048 - Wheat
 EXPERIMENT     : TUDU1701 WH
 DATA PATH      :
 TREATMENT  1   : 1                         WHAPS048
  


!                                        INITIAL Year/Doy      FINAL Year/Doy
!                                                  16/298              17/219
!SOIL N BALANCE                                 -----------kg N/ha-----------

!   Soil Humus N                                 16872.67            16836.03
!   Soil Litter N                                   19.50               12.99
!   N in Surface Residue                             0.00                0.00

!   Added to / Removed from Soil:
!   N in Harvest Residues from Previous Crop         0.00
!   N from Organic Applications                      0.00
!   N from senesced plant matter                     0.00
!   N immobilized                                    0.43
!   N mineralized                                                       43.59

!   Total N balance                              16892.61            16892.61
!   Balance                                                             0.000

!===============================================================================

*DSSAT Cropping System Model Ver. 4.8.5.000 -release  NOV 27, 2025 15:48:48

*RUN   2        : 2                         WHAPS048 TUDU1701    2
 MODEL          : WHAPS048 - Wheat
 EXPERIMENT     : TUDU1701 WH
 DATA PATH      :
 TREATMENT  2   : 2                         WHAPS048
  


!                                        INITIAL Year/Doy      FINAL Year/Doy
!                                                  16/298              17/219
!SOIL N BALANCE                                 -----------kg N/ha-----------

!   Soil Humus N                                 16872.67            16836.20
!   Soil Litter N                                   19.50               13.07
!   N in Surface Residue                             0.00                0.00

!   Added to / Removed from Soil:
!   N in Harvest Residues from Previous Crop         0.00
!   N from Organic Applications                      0.00
!   N from senesced plant matter                     0.00
!   N immobilized                                    0.43
!   N mineralized                                                       43.34

!   Total N balance                              16892.61            16892.61
!   Balance                                                             0.002

!===============================================================================

*DSSAT Cropping System Model Ver. 4.8.5.000 -release  NOV 27, 2025 15:48:48

*RUN   3        : 3                         WHAPS048 TUDU1701    3
 MODEL          : WHAPS048 - Wheat
 EXPERIMENT     : TUDU1701 WH
 DATA PATH      :
 TREATMENT  3   : 3                         WHAPS048
  


!                                        INITIAL Year/Doy      FINAL Year/Doy
!                                                  16/298              17/219
!SOIL N BALANCE                                 -----------kg N/ha-----------

!   Soil Humus N                                 16872.67            16830.64
!   Soil Litter N                                   19.50               10.84
!   N in Surface Residue                             0.00                0.00

!   Added to / Removed from Soil:
!   N in Harvest Residues from Previous Crop         0.00
!   N from Organic Applications                      0.00
!   N from senesced plant matter                     0.00
!   N immobilized                                    0.36
!   N mineralized                                                       51.06

!   Total N balance                              16892.54            16892.54
!   Balance                                                             0.002

!===============================================================================

*DSSAT Cropping System Model Ver. 4.8.5.000 -release  NOV 27, 2025 15:48:48

*RUN   4        : 4                         WHAPS048 TUDU1701    4
 MODEL          : WHAPS048 - Wheat
 EXPERIMENT     : TUDU1701 WH
 DATA PATH      :
 TREATMENT  4   : 4                         WHAPS048
  


!                                        INITIAL Year/Doy      FINAL Year/Doy
!                                                  16/298              17/219
!SOIL N BALANCE                                 -----------kg N/ha-----------

!   Soil Humus N                                 16872.67            16836.18
!   Soil Litter N                                   19.50               13.06
!   N in Surface Residue                             0.00                0.00

!   Added to / Removed from Soil:
!   N in Harvest Residues from Previous Crop         0.00
!   N from Organic Applications                      0.00
!   N from senesced plant matter                     0.00
!   N immobilized                                    0.43
!   N mineralized                                                       43.36

!   Total N balance                              16892.61            16892.61
!   Balance                                                             0.000

!===============================================================================

*DSSAT Cropping System Model Ver. 4.8.5.000 -release  NOV 27, 2025 15:48:48

*RUN   5        : 5                         WHAPS048 TUDU1701    5
 MODEL          : WHAPS048 - Wheat
 EXPERIMENT     : TUDU1701 WH
 DATA PATH      :
 TREATMENT  5   : 5                         WHAPS048
  


!                                        INITIAL Year/Doy      FINAL Year/Doy
!                                                  16/298              17/219
!SOIL N BALANCE                                 -----------kg N/ha-----------

!   Soil Humus N                                 16872.67            16837.26
!   Soil Litter N                                   19.50               13.66
!   N in Surface Residue                             0.00                0.00

!   Added to / Removed from Soil:
!   N in Harvest Residues from Previous Crop         0.00
!   N from Organic Applications                      0.00
!   N from senesced plant matter                     0.00
!   N immobilized                                    0.43
!   N mineralized                                                       41.68

!   Total N balance                              16892.61            16892.61
!   Balance                                                             0.000

!===============================================================================

*DSSAT Cropping System Model Ver. 4.8.5.000 -release  NOV 27, 2025 15:48:49

*RUN   6        : 6                         WHAPS048 TUDU1701    6
 MODEL          : WHAPS048 - Wheat
 EXPERIMENT     : TUDU1701 WH
 DATA PATH      :
 TREATMENT  6   : 6                         WHAPS048
  


!                                        INITIAL Year/Doy      FINAL Year/Doy
!                                                  16/298              17/219
!SOIL N BALANCE                                 -----------kg N/ha-----------

!   Soil Humus N                                 16872.67            16836.15
!   Soil Litter N                                   19.50               13.06
!   N in Surface Residue                             0.00                0.00

!   Added to / Removed from Soil:
!   N in Harvest Residues from Previous Crop         0.00
!   N from Organic Applications                      0.00
!   N from senesced plant matter                     0.00
!   N immobilized                                    0.43
!   N mineralized                                                       43.40

!   Total N balance                              16892.61            16892.61
!   Balance                                                             0.002

!===============================================================================

*DSSAT Cropping System Model Ver. 4.8.5.000 -release  NOV 27, 2025 15:48:49

*RUN   7        : 7                         WHAPS048 TUDU1701    7
 MODEL          : WHAPS048 - Wheat
 EXPERIMENT     : TUDU1701 WH
 DATA PATH      :
 TREATMENT  7   : 7                         WHAPS048
  


!                                        INITIAL Year/Doy      FINAL Year/Doy
!                                                  16/298              17/219
!SOIL N BALANCE                                 -----------kg N/ha-----------

!   Soil Humus N                                 16872.67            16837.36
!   Soil Litter N                                   19.50               13.74
!   N in Surface Residue                             0.00                0.00

!   Added to / Removed from Soil:
!   N in Harvest Residues from Previous Crop         0.00
!   N from Organic Applications                      0.00
!   N from senesced plant matter                     0.00
!   N immobilized                                    0.43
!   N mineralized                                                       41.51

!   Total N balance                              16892.61            16892.61
!   Balance                                                             0.000

!===============================================================================

*DSSAT Cropping System Model Ver. 4.8.5.000 -release  NOV 27, 2025 15:48:49

*RUN   8        : 8                         WHAPS048 TUDU1701    8
 MODEL          : WHAPS048 - Wheat
 EXPERIMENT     : TUDU1701 WH
 DATA PATH      :
 TREATMENT  8   : 8                         WHAPS048
  


!                                        INITIAL Year/Doy      FINAL Year/Doy
!                                                  16/298              17/219
!SOIL N BALANCE                                 -----------kg N/ha-----------

!   Soil Humus N                                 16872.67            16837.88
!   Soil Litter N                                   19.50               13.99
!   N in Surface Residue                             0.00                0.00

!   Added to / Removed from Soil:
!   N in Harvest Residues from Previous Crop         0.00
!   N from Organic Applications                      0.00
!   N from senesced plant matter                     0.00
!   N immobilized                                    0.43
!   N mineralized                                                       40.74

!   Total N balance                              16892.61            16892.61
!   Balance                                                            -0.002

!===============================================================================

*DSSAT Cropping System Model Ver. 4.8.5.000 -release  NOV 27, 2025 15:48:49

*RUN   9        : 9                         WHAPS048 TUDU1701    9
 MODEL          : WHAPS048 - Wheat
 EXPERIMENT     : TUDU1701 WH
 DATA PATH      :
 TREATMENT  9   : 9                         WHAPS048
  


!                                        INITIAL Year/Doy      FINAL Year/Doy
!                                                  16/298              17/219
!SOIL N BALANCE                                 -----------kg N/ha-----------

!   Soil Humus N                                 16872.67            16838.07
!   Soil Litter N                                   19.50               14.04
!   N in Surface Residue                             0.00                0.00

!   Added to / Removed from Soil:
!   N in Harvest Residues from Previous Crop         0.00
!   N from Organic Applications                      0.00
!   N from senesced plant matter                     0.00
!   N immobilized                                    0.43
!   N mineralized                                                       40.49

!   Total N balance                              16892.61            16892.61
!   Balance                                                             0.002

!===============================================================================

*DSSAT Cropping System Model Ver. 4.8.5.000 -release  NOV 27, 2025 15:48:50

*RUN  10        : 10                        WHAPS048 TUDU1701   10
 MODEL          : WHAPS048 - Wheat
 EXPERIMENT     : TUDU1701 WH
 DATA PATH      :
 TREATMENT 10   : 10                        WHAPS048
  


!                                        INITIAL Year/Doy      FINAL Year/Doy
!                                                  16/298              17/219
!SOIL N BALANCE                                 -----------kg N/ha-----------

!   Soil Humus N                                 16872.67            16830.64
!   Soil Litter N                                   19.50               10.84
!   N in Surface Residue                             0.00                0.00

!   Added to / Removed from Soil:
!   N in Harvest Residues from Previous Crop         0.00
!   N from Organic Applications                      0.00
!   N from senesced plant matter                     0.00
!   N immobilized                                    0.36
!   N mineralized                                                       51.06

!   Total N balance                              16892.54            16892.54
!   Balance                                                             0.000

!===============================================================================

*DSSAT Cropping System Model Ver. 4.8.5.000 -release  NOV 27, 2025 15:48:50

*RUN  11        : 11                        WHAPS048 TUDU1701   11
 MODEL          : WHAPS048 - Wheat
 EXPERIMENT     : TUDU1701 WH
 DATA PATH      :
 TREATMENT 11   : 11                        WHAPS048
  


!                                        INITIAL Year/Doy      FINAL Year/Doy
!                                                  16/298              17/219
!SOIL N BALANCE                                 -----------kg N/ha-----------

!   Soil Humus N                                 16872.67            16838.07
!   Soil Litter N                                   19.50               14.03
!   N in Surface Residue                             0.00                0.00

!   Added to / Removed from Soil:
!   N in Harvest Residues from Previous Crop         0.00
!   N from Organic Applications                      0.00
!   N from senesced plant matter                     0.00
!   N immobilized                                    0.43
!   N mineralized                                                       40.51

!   Total N balance                              16892.61            16892.61
!   Balance                                                             0.000

!===============================================================================

*DSSAT Cropping System Model Ver. 4.8.5.000 -release  NOV 27, 2025 15:48:50

*RUN  12        : 12                        WHAPS048 TUDU1701   12
 MODEL          : WHAPS048 - Wheat
 EXPERIMENT     : TUDU1701 WH
 DATA PATH      :
 TREATMENT 12   : 12                        WHAPS048
  


!                                        INITIAL Year/Doy      FINAL Year/Doy
!                                                  16/298              17/219
!SOIL N BALANCE                                 -----------kg N/ha-----------

!   Soil Humus N                                 16872.67            16837.92
!   Soil Litter N                                   19.50               14.00
!   N in Surface Residue                             0.00                0.00

!   Added to / Removed from Soil:
!   N in Harvest Residues from Previous Crop         0.00
!   N from Organic Applications                      0.00
!   N from senesced plant matter                     0.00
!   N immobilized                                    0.43
!   N mineralized                                                       40.69

!   Total N balance                              16892.61            16892.61
!   Balance                                                             0.000

!===============================================================================

*DSSAT Cropping System Model Ver. 4.8.5.000 -release  NOV 27, 2025 15:48:50

*RUN  13        : 13                        WHAPS048 TUDU1701   13
 MODEL          : WHAPS048 - Wheat
 EXPERIMENT     : TUDU1701 WH
 DATA PATH      :
 TREATMENT 13   : 13                        WHAPS048
  


!                                        INITIAL Year/Doy      FINAL Year/Doy
!                                                  16/298              17/219
!SOIL N BALANCE                                 -----------kg N/ha-----------

!   Soil Humus N                                 16872.67            16838.04
!   Soil Litter N                                   19.50               14.05
!   N in Surface Residue                             0.00                0.00

!   Added to / Removed from Soil:
!   N in Harvest Residues from Previous Crop         0.00
!   N from Organic Applications                      0.00
!   N from senesced plant matter                     0.00
!   N immobilized                                    0.43
!   N mineralized                                                       40.53

!   Total N balance                              16892.61            16892.61
!   Balance                                                             0.000

!===============================================================================

*DSSAT Cropping System Model Ver. 4.8.5.000 -release  NOV 27, 2025 15:48:51

*RUN  14        : 14                        WHAPS048 TUDU1701   14
 MODEL          : WHAPS048 - Wheat
 EXPERIMENT     : TUDU1701 WH
 DATA PATH      :
 TREATMENT 14   : 14                        WHAPS048
  


!                                        INITIAL Year/Doy      FINAL Year/Doy
!                                                  16/298              17/219
!SOIL N BALANCE                                 -----------kg N/ha-----------

!   Soil Humus N                                 16872.67            16837.29
!   Soil Litter N                                   19.50               13.75
!   N in Surface Residue                             0.00                0.00

!   Added to / Removed from Soil:
!   N in Harvest Residues from Previous Crop         0.00
!   N from Organic Applications                      0.00
!   N from senesced plant matter                     0.00
!   N immobilized                                    0.43
!   N mineralized                                                       41.57

!   Total N balance                              16892.61            16892.61
!   Balance                                                             0.000

!===============================================================================

*DSSAT Cropping System Model Ver. 4.8.5.000 -release  NOV 27, 2025 15:48:51

*RUN  15        : 15                        WHAPS048 TUDU1701   15
 MODEL          : WHAPS048 - Wheat
 EXPERIMENT     : TUDU1701 WH
 DATA PATH      :
 TREATMENT 15   : 15                        WHAPS048
  


!                                        INITIAL Year/Doy      FINAL Year/Doy
!                                                  16/298              17/219
!SOIL N BALANCE                                 -----------kg N/ha-----------

!   Soil Humus N                                 16872.67            16830.35
!   Soil Litter N                                   19.50               10.77
!   N in Surface Residue                             0.00                0.00

!   Added to / Removed from Soil:
!   N in Harvest Residues from Previous Crop         0.00
!   N from Organic Applications                      0.00
!   N from senesced plant matter                     0.00
!   N immobilized                                    0.36
!   N mineralized                                                       51.43

!   Total N balance                              16892.54            16892.54
!   Balance                                                             0.002
