*SOIL WATER DAILY OUTPUT FILE

*DSSAT Cropping System Model Ver. 4.8.5.000 -release  NOV 27, 2025 15:48:48

*RUN   1        : 1                         WHAPS048 TUDU1701    1
 MODEL          : WHAPS048 - Wheat
 EXPERIMENT     : TUDU1701 WH
 DATA PATH      :
 TREATMENT  1   : 1                         WHAPS048
  
!                                                                                                                                   Soil water content (mm3/mm3) by soil depth (cm):
!                                                                                                                                   0-5    5-15   15-20   20-30   30-40   40-50   50-60   60-70   70-90  90-110 110-130 130-150 150-170 170-190 190-210
@YEAR DOY   DAS    SWTD    SWXD    ROFC    DRNC    PREC    IR#C    IRRC   LATFC    DTWT    MWTD    TDFD    TDFC    ROFD    ROSD    SW1D    SW2D    SW3D    SW4D    SW5D    SW6D    SW7D    SW8D    SW9D   SW10D   SW11D   SW12D   SW13D   SW14D   SW15D
   16 297     0     545     253       0       0       0       0       0       0     210    0.00     0.0     0.0    0.00    0.00   0.223   0.234   0.249   0.249   0.269   0.269   0.269   0.268   0.268   0.264   0.259   0.259   0.259   0.259   0.259
   16 298     1     545     254       0       0       2       0       0       0     210    0.00     0.0     0.0    0.00    0.00   0.257   0.238   0.248   0.248   0.268   0.268   0.268   0.267   0.267   0.264   0.259   0.259   0.259   0.259   0.259
   16 299     2     546     254       0       0       3       0       0       0     210    0.00     0.0     0.0    0.00    0.00   0.256   0.246   0.247   0.247   0.268   0.268   0.268   0.267   0.267   0.263   0.258   0.259   0.259   0.259   0.259
   16 300     3     545     254       0       0       3       0       0       0     210    0.00     0.0     0.0    0.00    0.00   0.243   0.245   0.251   0.249   0.267   0.267   0.268   0.267   0.267   0.263   0.258   0.258   0.258   0.258   0.258
   16 301     4     544     252       0       0       3       0       0       0     210    0.00     0.0     0.0    0.00    0.00   0.235   0.244   0.251   0.249   0.266   0.267   0.267   0.266   0.267   0.263   0.258   0.258   0.258   0.258   0.258
   16 302     5     542     251       0       0       3       0       0       0     210    0.00     0.0     0.0    0.00    0.00   0.215   0.243   0.250   0.248   0.266   0.267   0.267   0.266   0.267   0.263   0.258   0.258   0.258   0.258   0.258
   16 303     6     542     250       0       0       3       0       0       0     210    0.00     0.0     0.0    0.00    0.00   0.199   0.242   0.250   0.248   0.266   0.267   0.267   0.266   0.266   0.263   0.258   0.258   0.258   0.258   0.258
   16 304     7     541     249       0       0       3       0       0       0     210    0.00     0.0     0.0    0.00    0.00   0.183   0.241   0.250   0.248   0.266   0.267   0.267   0.266   0.266   0.263   0.258   0.258   0.258   0.258   0.258
   16 305     8     540     248       0       0       3       0       0       0     210    0.00     0.0     0.0    0.00    0.00   0.168   0.239   0.249   0.248   0.266   0.267   0.267   0.266   0.266   0.263   0.258   0.258   0.258   0.258   0.258
   16 306     9     539     248       0       0       3       0       0       0     210    0.00     0.0     0.0    0.00    0.00   0.155   0.238   0.249   0.248   0.266   0.266   0.267   0.266   0.266   0.263   0.258   0.258   0.258   0.258   0.258
   16 307    10     538     247       0       0       3       0       0       0     210    0.00     0.0     0.0    0.00    0.00   0.147   0.237   0.248   0.248   0.266   0.266   0.267   0.266   0.266   0.263   0.258   0.258   0.258   0.258   0.258
   16 308    11     538     246       0       0       3       0       0       0     210    0.00     0.0     0.0    0.00    0.00   0.135   0.236   0.248   0.247   0.266   0.266   0.267   0.266   0.266   0.263   0.258   0.258   0.258   0.258   0.258
   16 309    12     537     246       0       0       3       0       0       0     210    0.00     0.0     0.0    0.00    0.00   0.125   0.235   0.248   0.247   0.266   0.266   0.267   0.266   0.266   0.263   0.258   0.258   0.258   0.258   0.258
   16 310    13     546     255       0       0      13       0       0       0     210    0.00     0.0     0.0    0.00    0.00   0.279   0.250   0.255   0.248   0.265   0.266   0.267   0.266   0.266   0.263   0.258   0.258   0.258   0.258   0.258
   16 311    14     554     263       0       0      21       0       0       0     210    0.00     0.0     0.0    0.00    0.00   0.318   0.277   0.285   0.263   0.267   0.266   0.267   0.266   0.266   0.263   0.258   0.258   0.258   0.258   0.258
   16 312    15     554     262       0       0      21       0       0       0     210    0.00     0.0     0.0    0.00    0.00   0.275   0.261   0.268   0.263   0.267   0.271   0.276   0.276   0.275   0.263   0.258   0.258   0.258   0.258   0.258
   16 313    16     553     262       0       0      21       0       0       0     210    0.00     0.0     0.0    0.00    0.00   0.254   0.253   0.260   0.263   0.267   0.271   0.276   0.276   0.275   0.273   0.258   0.258   0.258   0.258   0.258
   16 314    17     556     264       0       0      24       0       0       0     210    0.00     0.0     0.0    0.00    0.00   0.277   0.258   0.268   0.266   0.269   0.273   0.276   0.276   0.275   0.273   0.258   0.258   0.258   0.258   0.258
   16 315    18     562     271       0       0      31       0       0       0     210    0.00     0.0     0.0    0.00    0.00   0.318   0.275   0.289   0.273   0.273   0.275   0.278   0.277   0.275   0.273   0.258   0.258   0.258   0.258   0.258
   16 316    19     567     276       0       0      36       0       0       0     210    0.00     0.0     0.0    0.00    0.00   0.319   0.284   0.309   0.282   0.280   0.279   0.281   0.279   0.276   0.273   0.258   0.257   0.258   0.258   0.258
   16 317    20     567     275       0       0      36       0       0       0     210    0.00     0.0     0.0    0.00    0.00   0.276   0.265   0.280   0.272   0.273   0.275   0.278   0.277   0.276   0.273   0.270   0.268   0.266   0.263   0.260
   16 318    21     563     272       0       3      36       0       0       0     210    0.00     0.0     0.0    0.00    0.00   0.255   0.255   0.266   0.267   0.270   0.273   0.278   0.277   0.276   0.273   0.270   0.268   0.266   0.263   0.262
   16 319    22     561     270       0       5      36       0       0       0     210    0.00     0.0     0.0    0.00    0.00   0.244   0.250   0.259   0.264   0.268   0.273   0.278   0.277   0.276   0.273   0.270   0.268   0.266   0.263   0.262
   16 320    23     566     275       0       5      41       0       0       0     210    0.00     0.0     0.0    0.00    0.00   0.294   0.260   0.269   0.267   0.270   0.273   0.278   0.278   0.276   0.273   0.270   0.268   0.266   0.263   0.262
   16 321    24     574     282       0       5      49       0       0       0     210    0.00     0.0     0.0    0.00    0.00   0.319   0.286   0.300   0.277   0.276   0.276   0.280   0.279   0.278   0.273   0.270   0.268   0.266   0.263   0.262
   16 322    25     566     275       0      11      49       0       0       0     210    0.00     0.0     0.0    0.00    0.00   0.275   0.265   0.276   0.269   0.271   0.273   0.278   0.278   0.278   0.273   0.270   0.268   0.266   0.263   0.262
   16 323    26     572     281       0      11      55       0       0       0     210    0.00     0.0     0.0    0.00    0.00   0.319   0.274   0.292   0.275   0.276   0.276   0.279   0.279   0.277   0.275   0.270   0.268   0.266   0.263   0.262
   16 324    27     579     288       0      11      62       0       0       0     210    0.00     0.0     0.0    0.00    0.00   0.320   0.294   0.320   0.286   0.283   0.282   0.283   0.281   0.277   0.275   0.272   0.268   0.266   0.263   0.262
   16 325    28     569     277       0      20      62       0       0       0     210    0.00     0.0     0.0    0.00    0.00   0.274   0.268   0.285   0.273   0.274   0.276   0.279   0.278   0.277   0.275   0.271   0.268   0.266   0.263   0.262
   16 326    29     564     273       0      24      62       0       0       0     210    0.00     0.0     0.0    0.00    0.00   0.252   0.256   0.268   0.267   0.270   0.273   0.277   0.278   0.276   0.274   0.271   0.268   0.266   0.263   0.262
   16 327    30     562     270       0      26      62       0       0       0     210    0.00     0.0     0.0    0.00    0.00   0.242   0.250   0.259   0.264   0.268   0.273   0.277   0.277   0.276   0.274   0.271   0.268   0.266   0.263   0.262
   16 328    31     561     269       0      26      62       0       0       0     210    0.00     0.0     0.0    0.00    0.00   0.236   0.247   0.255   0.263   0.268   0.272   0.277   0.277   0.276   0.274   0.271   0.268   0.266   0.263   0.262
   16 329    32     560     269       0      26      62       0       0       0     210    0.00     0.0     0.0    0.00    0.00   0.235   0.247   0.255   0.263   0.268   0.272   0.276   0.277   0.276   0.274   0.271   0.268   0.266   0.263   0.262
   16 330    33     560     269       0      26      62       0       0       0     210    0.00     0.0     0.0    0.00    0.00   0.233   0.246   0.254   0.263   0.267   0.272   0.276   0.277   0.276   0.274   0.271   0.268   0.266   0.263   0.262
   16 331    34     560     268       0      26      62       0       0       0     210    0.00     0.0     0.0    0.00    0.00   0.233   0.246   0.254   0.263   0.267   0.272   0.276   0.277   0.276   0.274   0.271   0.268   0.266   0.263   0.262
   16 332    35     559     268       0      26      62       0       0       0     210    0.00     0.0     0.0    0.00    0.00   0.231   0.245   0.254   0.262   0.267   0.272   0.276   0.277   0.276   0.274   0.271   0.268   0.266   0.263   0.262
   16 333    36     559     268       0      26      62       0       0       0     210    0.00     0.0     0.0    0.00    0.00   0.230   0.245   0.253   0.262   0.267   0.271   0.276   0.277   0.275   0.273   0.270   0.267   0.265   0.263   0.262
   16 334    37     559     267       0      26      62       0       0       0     210    0.00     0.0     0.0    0.00    0.00   0.229   0.244   0.253   0.262   0.267   0.271   0.276   0.276   0.275   0.273   0.270   0.267   0.265   0.262   0.262
   16 335    38     558     267       0      26      62       0       0       0     210    0.00     0.0     0.0    0.00    0.00   0.228   0.244   0.253   0.262   0.266   0.271   0.276   0.276   0.275   0.273   0.270   0.267   0.265   0.262   0.261
   16 336    39     558     267       0      26      62       0       0       0     210    0.00     0.0     0.0    0.00    0.00   0.227   0.243   0.252   0.261   0.266   0.271   0.275   0.276   0.275   0.273   0.270   0.267   0.265   0.262   0.261
   16 337    40     559     267       0      26      63       0       0       0     210    0.00     0.0     0.0    0.00    0.00   0.240   0.245   0.252   0.261   0.266   0.271   0.275   0.276   0.275   0.273   0.270   0.267   0.265   0.262   0.261
   16 338    41     558     267       0      26      63       0       0       0     210    0.00     0.0     0.0    0.00    0.00   0.237   0.246   0.252   0.261   0.266   0.271   0.275   0.276   0.275   0.273   0.270   0.267   0.265   0.262   0.261
   16 339    42     558     267       0      26      63       0       0       0     210    0.00     0.0     0.0    0.00    0.00   0.237   0.245   0.252   0.261   0.266   0.271   0.275   0.276   0.275   0.273   0.270   0.267   0.265   0.262   0.261
   16 340    43     558     267       0      26      63       0       0       0     210    0.00     0.0     0.0    0.00    0.00   0.237   0.245   0.252   0.261   0.266   0.270   0.275   0.276   0.275   0.273   0.270   0.267   0.265   0.262   0.261
   16 341    44     558     267       0      26      63       0       0       0     210    0.00     0.0     0.0    0.00    0.00   0.236   0.245   0.251   0.261   0.266   0.270   0.275   0.276   0.275   0.273   0.270   0.267   0.265   0.262   0.261
   16 342    45     558     267       0      26      63       0       0       0     210    0.00     0.0     0.0    0.00    0.00   0.234   0.245   0.251   0.261   0.266   0.270   0.275   0.276   0.275   0.273   0.270   0.267   0.265   0.262   0.261
   16 343    46     558     266       0      26      63       0       0       0     210    0.00     0.0     0.0    0.00    0.00   0.227   0.245   0.251   0.261   0.265   0.270   0.275   0.276   0.275   0.273   0.270   0.267   0.265   0.262   0.261
   16 344    47     557     266       0      26      63       0       0       0     210    0.00     0.0     0.0    0.00    0.00   0.217   0.244   0.251   0.261   0.265   0.270   0.275   0.276   0.275   0.273   0.270   0.267   0.265   0.262   0.261
   16 345    48     556     265       0      26      63       0       0       0     210    0.00     0.0     0.0    0.00    0.00   0.203   0.243   0.251   0.261   0.265   0.270   0.275   0.276   0.275   0.273   0.270   0.267   0.265   0.262   0.261
   16 346    49     557     265       0      26      64       0       0       0     210    0.00     0.0     0.0    0.00    0.00   0.218   0.243   0.251   0.260   0.265   0.270   0.275   0.276   0.275   0.273   0.270   0.267   0.265   0.262   0.261
   16 347    50     557     265       0      26      64       0       0       0     210    0.00     0.0     0.0    0.00    0.00   0.215   0.242   0.250   0.260   0.265   0.270   0.275   0.276   0.275   0.273   0.270   0.267   0.265   0.262   0.261
   16 348    51     556     265       0      26      64       0       0       0     210    0.00     0.0     0.0    0.00    0.00   0.205   0.242   0.250   0.260   0.265   0.270   0.275   0.276   0.275   0.273   0.270   0.267   0.265   0.262   0.261
   16 349    52     555     264       0      26      64       0       0       0     210    0.00     0.0     0.0    0.00    0.00   0.197   0.241   0.250   0.260   0.265   0.270   0.275   0.276   0.275   0.273   0.270   0.267   0.265   0.262   0.261
   16 350    53     555     264       0      26      64       0       0       0     210    0.00     0.0     0.0    0.00    0.00   0.195   0.241   0.250   0.260   0.265   0.270   0.275   0.276   0.275   0.273   0.270   0.267   0.265   0.262   0.261
   16 351    54     555     264       0      26      64       0       0       0     210    0.00     0.0     0.0    0.00    0.00   0.194   0.241   0.250   0.260   0.265   0.270   0.275   0.276   0.275   0.273   0.270   0.267   0.265   0.262   0.261
   16 352    55     555     264       0      26      64       0       0       0     210    0.00     0.0     0.0    0.00    0.00   0.193   0.241   0.250   0.260   0.265   0.270   0.275   0.276   0.275   0.273   0.270   0.267   0.265   0.262   0.261
   16 353    56     555     264       0      26      64       0       0       0     210    0.00     0.0     0.0    0.00    0.00   0.192   0.241   0.250   0.260   0.265   0.270   0.275   0.276   0.275   0.273   0.270   0.267   0.265   0.262   0.261
   16 354    57     555     264       0      26      64       0       0       0     210    0.00     0.0     0.0    0.00    0.00   0.190   0.240   0.250   0.260   0.265   0.270   0.275   0.276   0.275   0.273   0.270   0.267   0.265   0.262   0.261
   16 355    58     555     264       0      26      64       0       0       0     210    0.00     0.0     0.0    0.00    0.00   0.188   0.240   0.250   0.260   0.265   0.270   0.275   0.276   0.275   0.273   0.270   0.267   0.265   0.262   0.261
   16 356    59     555     263       0      26      64       0       0       0     210    0.00     0.0     0.0    0.00    0.00   0.188   0.240   0.250   0.260   0.265   0.270   0.275   0.276   0.275   0.273   0.270   0.267   0.265   0.262   0.261
   16 357    60     555     263       0      26      64       0       0       0     210    0.00     0.0     0.0    0.00    0.00   0.186   0.240   0.250   0.260   0.265   0.270   0.275   0.276   0.275   0.273   0.270   0.267   0.265   0.262   0.261
   16 358    61     555     263       0      26      64       0       0       0     210    0.00     0.0     0.0    0.00    0.00   0.184   0.240   0.250   0.260   0.265   0.270   0.275   0.276   0.275   0.273   0.270   0.267   0.265   0.262   0.261
   16 359    62     554     263       0      26      64       0       0       0     210    0.00     0.0     0.0    0.00    0.00   0.179   0.240   0.250   0.260   0.265   0.270   0.275   0.276   0.275   0.273   0.270   0.267   0.265   0.262   0.261
   16 360    63     554     263       0      26      64       0       0       0     210    0.00     0.0     0.0    0.00    0.00   0.173   0.239   0.249   0.260   0.265   0.270   0.275   0.276   0.275   0.273   0.270   0.267   0.265   0.262   0.261
   16 361    64     555     263       0      26      65       0       0       0     210    0.00     0.0     0.0    0.00    0.00   0.188   0.239   0.249   0.260   0.265   0.270   0.275   0.275   0.275   0.273   0.270   0.267   0.265   0.262   0.261
   16 362    65     554     263       0      26      65       0       0       0     210    0.00     0.0     0.0    0.00    0.00   0.183   0.238   0.249   0.260   0.265   0.270   0.275   0.275   0.275   0.273   0.270   0.267   0.265   0.262   0.261
   16 363    66     554     263       0      26      65       0       0       0     210    0.00     0.0     0.0    0.00    0.00   0.180   0.238   0.249   0.260   0.265   0.270   0.275   0.275   0.275   0.273   0.270   0.267   0.265   0.262   0.261
   16 364    67     554     262       0      26      65       0       0       0     210    0.00     0.0     0.0    0.00    0.00   0.174   0.237   0.249   0.260   0.265   0.270   0.275   0.275   0.275   0.273   0.270   0.267   0.265   0.262   0.261
   16 365    68     553     262       0      26      65       0       0       0     210    0.00     0.0     0.0    0.00    0.00   0.171   0.237   0.249   0.260   0.265   0.270   0.275   0.275   0.275   0.273   0.270   0.267   0.265   0.262   0.261
   16 366    69     553     262       0      26      65       0       0       0     210    0.00     0.0     0.0    0.00    0.00   0.170   0.237   0.249   0.260   0.265   0.270   0.275   0.275   0.275   0.273   0.270   0.267   0.265   0.262   0.261
   17 001    70     553     262       0      26      65       0       0       0     210    0.00     0.0     0.0    0.00    0.00   0.168   0.237   0.249   0.259   0.265   0.270   0.275   0.275   0.275   0.273   0.270   0.267   0.265   0.262   0.261
   17 002    71     553     262       0      26      66       0       0       0     210    0.00     0.0     0.0    0.00    0.00   0.167   0.237   0.249   0.259   0.265   0.270   0.275   0.275   0.275   0.273   0.270   0.267   0.265   0.262   0.261
   17 003    72     553     262       0      26      66       0       0       0     210    0.00     0.0     0.0    0.00    0.00   0.166   0.237   0.249   0.259   0.265   0.270   0.275   0.275   0.275   0.273   0.270   0.267   0.265   0.262   0.261
   17 004    73     553     262       0      26      66       0       0       0     210    0.00     0.0     0.0    0.00    0.00   0.165   0.237   0.249   0.259   0.265   0.270   0.275   0.275   0.275   0.273   0.270   0.267   0.265   0.262   0.261
   17 005    74     553     262       0      26      66       0       0       0     210    0.00     0.0     0.0    0.00    0.00   0.164   0.236   0.248   0.259   0.265   0.270   0.275   0.275   0.275   0.273   0.270   0.267   0.265   0.262   0.261
   17 006    75     553     262       0      26      72       0       0       0     210    0.00     0.0     0.0    0.00    0.00   0.163   0.236   0.248   0.259   0.265   0.270   0.275   0.275   0.275   0.273   0.270   0.267   0.265   0.262   0.261
   17 007    76     553     262       0      26      81       0       0       0     210    0.00     0.0     0.0    0.00    0.00   0.162   0.236   0.248   0.259   0.265   0.270   0.275   0.275   0.275   0.273   0.270   0.267   0.265   0.262   0.261
   17 008    77     553     262       0      26      81       0       0       0     210    0.00     0.0     0.0    0.00    0.00   0.161   0.236   0.248   0.259   0.265   0.270   0.275   0.275   0.275   0.273   0.270   0.267   0.265   0.262   0.261
   17 009    78     553     261       0      26      81       0       0       0     210    0.00     0.0     0.0    0.00    0.00   0.161   0.236   0.248   0.259   0.265   0.270   0.275   0.275   0.275   0.273   0.270   0.267   0.265   0.262   0.261
   17 010    79     553     261       0      26      81       0       0       0     210    0.00     0.0     0.0    0.00    0.00   0.159   0.236   0.248   0.259   0.265   0.270   0.275   0.275   0.275   0.273   0.270   0.267   0.265   0.262   0.261
   17 011    80     554     262       0      26      82       0       0       0     210    0.00     0.0     0.0    0.00    0.00   0.179   0.236   0.248   0.259   0.265   0.270   0.275   0.275   0.275   0.273   0.270   0.267   0.265   0.262   0.261
   17 012    81     564     272       0      26      92       0       0       0     210    0.00     0.0     0.0    0.00    0.00   0.314   0.257   0.261   0.264   0.265   0.270   0.274   0.275   0.275   0.273   0.270   0.267   0.265   0.262   0.261
   17 013    82     562     271       0      28      92       0       0       0     210    0.00     0.0     0.0    0.00    0.00   0.274   0.251   0.256   0.264   0.267   0.271   0.276   0.276   0.275   0.273   0.270   0.268   0.266   0.263   0.262
   17 014    83     561     269       0      29      92       0       0       0     210    0.00     0.0     0.0    0.00    0.00   0.255   0.248   0.254   0.264   0.267   0.271   0.276   0.276   0.275   0.273   0.270   0.268   0.266   0.263   0.262
   17 015    84     560     269       0      29      92       0       0       0     210    0.00     0.0     0.0    0.00    0.00   0.245   0.248   0.254   0.264   0.267   0.271   0.276   0.276   0.275   0.273   0.270   0.268   0.266   0.263   0.262
   17 016    85     560     269       0      29      92       0       0       0     210    0.00     0.0     0.0    0.00    0.00   0.240   0.248   0.254   0.263   0.267   0.271   0.276   0.276   0.275   0.273   0.270   0.268   0.266   0.263   0.262
   17 017    86     560     269       0      29      92       0       0       0     210    0.00     0.0     0.0    0.00    0.00   0.238   0.248   0.254   0.263   0.267   0.271   0.276   0.276   0.275   0.273   0.270   0.268   0.266   0.263   0.262
   17 018    87     560     268       0      29      92       0       0       0     210    0.00     0.0     0.0    0.00    0.00   0.237   0.248   0.254   0.263   0.267   0.271   0.276   0.276   0.275   0.273   0.270   0.268   0.266   0.263   0.262
   17 019    88     560     268       0      29      92       0       0       0     210    0.00     0.0     0.0    0.00    0.00   0.237   0.248   0.254   0.263   0.267   0.271   0.276   0.276   0.275   0.273   0.270   0.268   0.266   0.263   0.262
   17 020    89     560     268       0      29      97       0       0       0     210    0.00     0.0     0.0    0.00    0.00   0.234   0.248   0.253   0.263   0.267   0.271   0.276   0.276   0.275   0.273   0.270   0.268   0.266   0.263   0.262
   17 021    90     560     268       0      29     100       0       0       0     210    0.00     0.0     0.0    0.00    0.00   0.234   0.247   0.253   0.263   0.267   0.271   0.276   0.276   0.275   0.273   0.270   0.268   0.266   0.263   0.262
   17 022    91     559     268       0      29     105       0       0       0     210    0.00     0.0     0.0    0.00    0.00   0.234   0.247   0.253   0.263   0.267   0.271   0.276   0.276   0.275   0.273   0.270   0.268   0.266   0.263   0.262
   17 023    92     559     268       0      29     106       0       0       0     210    0.00     0.0     0.0    0.00    0.00   0.234   0.247   0.253   0.263   0.267   0.271   0.276   0.276   0.275   0.273   0.270   0.268   0.266   0.263   0.262
   17 024    93     559     268       0      29     107       0       0       0     210    0.00     0.0     0.0    0.00    0.00   0.234   0.247   0.253   0.263   0.267   0.271   0.276   0.276   0.275   0.273   0.270   0.268   0.266   0.263   0.262
   17 025    94     559     268       0      29     108       0       0       0     210    0.00     0.0     0.0    0.00    0.00   0.233   0.247   0.253   0.263   0.267   0.271   0.276   0.276   0.275   0.273   0.270   0.268   0.266   0.263   0.262
   17 026    95     559     268       0      29     108       0       0       0     210    0.00     0.0     0.0    0.00    0.00   0.233   0.247   0.253   0.263   0.266   0.271   0.276   0.276   0.275   0.273   0.270   0.268   0.266   0.263   0.262
   17 027    96     559     267       0      29     116       0       0       0     210    0.00     0.0     0.0    0.00    0.00   0.232   0.247   0.253   0.263   0.266   0.270   0.275   0.276   0.275   0.273   0.270   0.268   0.266   0.263   0.262
   17 028    97     559     267       0      29     117       0       0       0     210    0.00     0.0     0.0    0.00    0.00   0.231   0.246   0.253   0.262   0.266   0.270   0.275   0.275   0.275   0.273   0.270   0.268   0.266   0.263   0.262
   17 029    98     558     267       0      29     121       0       0       0     210    0.00     0.0     0.0    0.00    0.00   0.230   0.246   0.252   0.262   0.266   0.270   0.275   0.275   0.274   0.272   0.270   0.268   0.266   0.263   0.262
   17 030    99     558     267       0      29     122       0       0       0     210    0.00     0.0     0.0    0.00    0.00   0.229   0.245   0.252   0.262   0.266   0.270   0.275   0.275   0.274   0.272   0.269   0.268   0.266   0.263   0.262
   17 031   100     563     271       0      29     127       0       0       0     210    0.00     0.0     0.0    0.00    0.00   0.285   0.255   0.262   0.264   0.268   0.270   0.275   0.275   0.274   0.272   0.269   0.267   0.265   0.263   0.262
   17 032   101     562     270       0      30     127       0       0       0     210    0.00     0.0     0.0    0.00    0.00   0.260   0.250   0.257   0.264   0.268   0.271   0.276   0.276   0.275   0.273   0.270   0.268   0.266   0.263   0.262
   17 033   102     560     269       0      31     127       0       0       0     210    0.00     0.0     0.0    0.00    0.00   0.246   0.247   0.254   0.264   0.267   0.271   0.276   0.276   0.275   0.273   0.270   0.268   0.266   0.263   0.262
   17 034   103     560     269       0      31     127       0       0       0     210    0.00     0.0     0.0    0.00    0.00   0.240   0.247   0.253   0.263   0.267   0.271   0.276   0.276   0.275   0.273   0.270   0.268   0.266   0.263   0.262
   17 035   104     559     268       0      31     127       0       0       0     210    0.00     0.0     0.0    0.00    0.00   0.234   0.246   0.253   0.263   0.267   0.270   0.276   0.276   0.275   0.273   0.270   0.268   0.266   0.263   0.262
   17 036   105     558     266       0      31     127       0       0       0     210    0.00     0.0     0.0    0.00    0.00   0.230   0.244   0.251   0.262   0.266   0.270   0.275   0.275   0.274   0.272   0.269   0.267   0.265   0.263   0.261
   17 037   106     558     266       0      31     127       0       0       0     210    0.00     0.0     0.0    0.00    0.00   0.226   0.244   0.251   0.262   0.266   0.270   0.275   0.275   0.274   0.272   0.269   0.267   0.265   0.263   0.261
   17 038   107     557     265       0      31     127       0       0       0     210    0.00     0.0     0.0    0.00    0.00   0.213   0.243   0.251   0.261   0.266   0.270   0.275   0.275   0.274   0.272   0.269   0.267   0.265   0.263   0.261
   17 039   108     557     265       0      31     127       0       0       0     210    0.00     0.0     0.0    0.00    0.00   0.208   0.243   0.251   0.261   0.266   0.270   0.275   0.275   0.274   0.272   0.269   0.267   0.265   0.263   0.261
   17 040   109     556     265       0      31     127       0       0       0     210    0.00     0.0     0.0    0.00    0.00   0.205   0.242   0.251   0.261   0.266   0.270   0.275   0.275   0.274   0.272   0.269   0.267   0.265   0.263   0.261
   17 041   110     556     265       0      31     127       0       0       0     210    0.00     0.0     0.0    0.00    0.00   0.204   0.242   0.251   0.261   0.266   0.270   0.275   0.275   0.274   0.272   0.269   0.267   0.265   0.263   0.261
   17 042   111     555     264       0      31     127       0       0       0     210    0.00     0.0     0.0    0.00    0.00   0.190   0.241   0.250   0.261   0.266   0.270   0.275   0.275   0.274   0.272   0.269   0.267   0.265   0.263   0.261
   17 043   112     555     264       0      31     127       0       0       0     210    0.00     0.0     0.0    0.00    0.00   0.187   0.241   0.250   0.261   0.266   0.270   0.275   0.275   0.274   0.272   0.269   0.267   0.265   0.263   0.261
   17 044   113     555     263       0      31     127       0       0       0     210    0.00     0.0     0.0    0.00    0.00   0.180   0.240   0.250   0.261   0.266   0.270   0.275   0.275   0.274   0.272   0.269   0.267   0.265   0.263   0.261
   17 045   114     554     262       0      31     127       0       0       0     210    0.00     0.0     0.0    0.00    0.00   0.167   0.239   0.250   0.261   0.266   0.270   0.275   0.275   0.274   0.272   0.269   0.267   0.265   0.263   0.261
   17 046   115     553     262       0      31     127       0       0       0     210    0.00     0.0     0.0    0.00    0.00   0.155   0.238   0.249   0.261   0.265   0.270   0.275   0.275   0.274   0.272   0.269   0.267   0.265   0.263   0.261
   17 047   116     554     263       0      31     129       0       0       0     210    0.00     0.0     0.0    0.00    0.00   0.182   0.237   0.249   0.260   0.265   0.269   0.275   0.275   0.274   0.272   0.269   0.267   0.265   0.263   0.261
   17 048   117     558     266       0      31     133       0       0       0     210    0.00     0.0     0.0    0.00    0.00   0.243   0.242   0.249   0.260   0.265   0.269   0.275   0.275   0.274   0.272   0.269   0.267   0.265   0.263   0.261
   17 049   118     557     266       0      31     133       0       0       0     210    0.00     0.0     0.0    0.00    0.00   0.237   0.243   0.248   0.260   0.265   0.269   0.274   0.275   0.274   0.272   0.269   0.267   0.265   0.262   0.261
   17 050   119     556     264       0      31     133       0       0       0     210    0.00     0.0     0.0    0.00    0.00   0.233   0.241   0.247   0.259   0.264   0.268   0.274   0.274   0.273   0.272   0.269   0.267   0.265   0.262   0.261
   17 051   120     557     265       0      31     135       0       0       0     210    0.00     0.0     0.0    0.00    0.00   0.252   0.246   0.250   0.258   0.263   0.268   0.273   0.274   0.273   0.271   0.269   0.267   0.265   0.262   0.261
   17 052   121     561     270       0      31     140       0       0       0     210    0.00     0.0     0.0    0.00    0.00   0.297   0.258   0.263   0.263   0.263   0.268   0.273   0.273   0.273   0.271   0.268   0.267   0.265   0.262   0.261
   17 053   122     560     269       0      31     140       0       0       0     210    0.00     0.0     0.0    0.00    0.00   0.263   0.251   0.257   0.263   0.267   0.271   0.276   0.276   0.275   0.273   0.270   0.267   0.265   0.262   0.261
   17 054   123     559     267       0      31     140       0       0       0     210    0.00     0.0     0.0    0.00    0.00   0.244   0.246   0.253   0.262   0.266   0.270   0.275   0.275   0.274   0.273   0.270   0.268   0.266   0.262   0.260
   17 055   124     558     266       0      31     140       0       0       0     210    0.00     0.0     0.0    0.00    0.00   0.235   0.245   0.252   0.261   0.266   0.270   0.275   0.275   0.274   0.272   0.269   0.267   0.265   0.262   0.260
   17 056   125     557     265       0      31     140       0       0       0     210    0.00     0.0     0.0    0.00    0.00   0.216   0.244   0.252   0.261   0.266   0.270   0.275   0.275   0.274   0.272   0.269   0.267   0.265   0.262   0.260
   17 057   126     556     264       0      31     140       0       0       0     210    0.00     0.0     0.0    0.00    0.00   0.199   0.242   0.251   0.261   0.266   0.270   0.275   0.275   0.274   0.272   0.269   0.267   0.265   0.262   0.260
   17 058   127     555     263       0      31     140       0       0       0     210    0.00     0.0     0.0    0.00    0.00   0.183   0.241   0.251   0.261   0.266   0.270   0.275   0.275   0.274   0.272   0.269   0.267   0.265   0.262   0.260
   17 059   128     566     275       0      31     152       0       0       0     210    0.00     0.0     0.0    0.00    0.00   0.318   0.268   0.274   0.267   0.269   0.272   0.274   0.275   0.274   0.272   0.269   0.267   0.265   0.262   0.260
   17 060   129     570     278       0      31     157       0       0       0     210    0.00     0.0     0.0    0.00    0.00   0.316   0.280   0.297   0.275   0.274   0.275   0.278   0.274   0.273   0.272   0.269   0.267   0.265   0.262   0.260
   17 061   130     564     272       0      35     157       0       0       0     210    0.00     0.0     0.0    0.00    0.00   0.267   0.260   0.272   0.267   0.269   0.272   0.277   0.275   0.274   0.272   0.269   0.268   0.266   0.263   0.262
   17 062   131     561     269       0      36     157       0       0       0     210    0.00     0.0     0.0    0.00    0.00   0.245   0.251   0.261   0.263   0.268   0.271   0.277   0.275   0.275   0.273   0.270   0.268   0.266   0.263   0.262
   17 063   132     559     268       0      37     157       0       0       0     210    0.00     0.0     0.0    0.00    0.00   0.234   0.246   0.255   0.262   0.267   0.270   0.276   0.275   0.274   0.273   0.270   0.268   0.266   0.263   0.262
   17 064   133     559     268       0      37     159       0       0       0     210    0.00     0.0     0.0    0.00    0.00   0.249   0.248   0.256   0.264   0.266   0.269   0.275   0.275   0.274   0.272   0.269   0.267   0.265   0.262   0.261
   17 065   134     559     268       0      37     160       0       0       0     210    0.00     0.0     0.0    0.00    0.00   0.249   0.249   0.258   0.264   0.268   0.269   0.275   0.274   0.274   0.272   0.269   0.267   0.265   0.262   0.261
   17 066   135     558     267       0      37     160       0       0       0     210    0.00     0.0     0.0    0.00    0.00   0.238   0.246   0.254   0.263   0.268   0.270   0.276   0.276   0.274   0.271   0.269   0.267   0.265   0.262   0.261
   17 067   136     564     273       0      37     167       0       0       0     210    0.00     0.0     0.0    0.00    0.00   0.310   0.261   0.268   0.266   0.269   0.273   0.275   0.275   0.273   0.271   0.268   0.267   0.265   0.262   0.261
   17 068   137     576     285       0      37     180       0       0       0     210    0.00     0.0     0.0    0.26    0.00   0.318   0.313   0.323   0.284   0.279   0.278   0.279   0.278   0.273   0.271   0.268   0.266   0.265   0.262   0.261
   17 069   138     568     276       0      44     180       0       0       0     210    0.00     0.0     0.0    0.00    0.00   0.271   0.277   0.286   0.272   0.272   0.274   0.278   0.277   0.274   0.273   0.270   0.268   0.266   0.263   0.262
   17 070   139     562     271       0      47     180       0       0       0     210    0.00     0.0     0.0    0.00    0.00   0.245   0.259   0.267   0.265   0.268   0.272   0.277   0.277   0.274   0.272   0.269   0.268   0.266   0.263   0.262
   17 071   140     559     268       0      48     180       0       0       0     210    0.00     0.0     0.0    0.00    0.00   0.230   0.249   0.257   0.262   0.267   0.271   0.276   0.276   0.274   0.272   0.269   0.267   0.266   0.263   0.262
   17 072   141     557     265       0      48     180       0       0       0     210    0.00     0.0     0.0    0.00    0.00   0.220   0.245   0.252   0.260   0.266   0.270   0.275   0.275   0.274   0.272   0.269   0.267   0.265   0.262   0.261
   17 073   142     555     263       0      48     180       0       0       0     210    0.00     0.0     0.0    0.00    0.00   0.212   0.242   0.250   0.259   0.264   0.269   0.274   0.274   0.273   0.271   0.268   0.267   0.265   0.262   0.261
   17 074   143     553     262       0      48     180       0       0       0     210    0.00     0.0     0.0    0.00    0.00   0.194   0.241   0.250   0.258   0.264   0.269   0.274   0.274   0.273   0.271   0.268   0.267   0.265   0.262   0.261
   17 075   144     552     261       0      48     180       0       0       0     210    0.00     0.0     0.0    0.00    0.00   0.177   0.239   0.249   0.258   0.264   0.269   0.274   0.274   0.273   0.271   0.268   0.267   0.265   0.262   0.261
   17 076   145     552     261       0      48     181       0       0       0     210    0.00     0.0     0.0    0.00    0.00   0.179   0.237   0.248   0.257   0.264   0.268   0.274   0.274   0.273   0.271   0.268   0.266   0.265   0.262   0.261
   17 077   146     555     263       0      48     185       0       0       0     210    0.00     0.0     0.0    0.00    0.00   0.233   0.239   0.246   0.256   0.263   0.268   0.274   0.274   0.273   0.271   0.268   0.266   0.265   0.262   0.261
   17 078   147     554     262       0      48     185       0       0       0     210    0.00     0.0     0.0    0.00    0.00   0.219   0.238   0.246   0.256   0.263   0.268   0.274   0.274   0.273   0.271   0.268   0.266   0.265   0.262   0.261
   17 079   148     553     261       0      48     185       0       0       0     210    0.00     0.0     0.0    0.00    0.00   0.201   0.237   0.245   0.256   0.263   0.268   0.274   0.274   0.273   0.271   0.268   0.266   0.265   0.262   0.261
   17 080   149     552     261       0      48     186       0       0       0     210    0.00     0.0     0.0    0.00    0.00   0.202   0.235   0.244   0.255   0.262   0.268   0.274   0.274   0.273   0.271   0.268   0.266   0.265   0.262   0.261
   17 081   150     553     261       0      48     187       0       0       0     210    0.00     0.0     0.0    0.00    0.00   0.213   0.234   0.244   0.255   0.262   0.267   0.274   0.274   0.273   0.271   0.268   0.266   0.265   0.262   0.261
   17 082   151     552     260       0      48     187       0       0       0     210    0.00     0.0     0.0    0.00    0.00   0.196   0.233   0.243   0.255   0.262   0.267   0.274   0.274   0.273   0.271   0.268   0.266   0.265   0.262   0.261
   17 083   152     551     259       0      48     187       0       0       0     210    0.00     0.0     0.0    0.00    0.00   0.185   0.231   0.242   0.254   0.262   0.267   0.273   0.274   0.273   0.271   0.268   0.266   0.265   0.262   0.261
   17 084   153     550     258       0      48     187       0       0       0     210    0.00     0.0     0.0    0.00    0.00   0.170   0.230   0.242   0.254   0.261   0.267   0.273   0.274   0.273   0.271   0.268   0.266   0.265   0.262   0.261
   17 085   154     548     257       0      48     187       0       0       0     210    0.00     0.0     0.0    0.00    0.00   0.154   0.227   0.240   0.253   0.261   0.267   0.273   0.274   0.273   0.271   0.268   0.266   0.265   0.262   0.261
   17 086   155     547     256       0      48     187       0       0       0     210    0.00     0.0     0.0    0.00    0.00   0.140   0.225   0.239   0.252   0.260   0.266   0.273   0.274   0.273   0.271   0.268   0.266   0.265   0.262   0.261
   17 087   156     545     254       0      48     187       0       0       0     210    0.00     0.0     0.0    0.00    0.00   0.126   0.220   0.235   0.250   0.259   0.265   0.272   0.274   0.273   0.271   0.268   0.266   0.265   0.262   0.261
   17 088   157     543     251       0      48     187       0       0       0     210    0.00     0.0     0.0    0.00    0.00   0.113   0.214   0.231   0.247   0.257   0.263   0.271   0.273   0.273   0.271   0.268   0.266   0.265   0.262   0.261
   17 089   158     541     249       0      48     187       0       0       0     210    0.00     0.0     0.0    0.00    0.00   0.105   0.209   0.226   0.244   0.255   0.262   0.270   0.273   0.273   0.271   0.268   0.266   0.265   0.262   0.261
   17 090   159     539     247       0      48     187       0       0       0     210    0.00     0.0     0.0    0.00    0.00   0.098   0.202   0.221   0.241   0.252   0.260   0.268   0.273   0.273   0.271   0.268   0.266   0.265   0.262   0.261
   17 091   160     535     244       0      48     187       0       0       0     210    0.00     0.0     0.0    0.00    0.00   0.093   0.193   0.212   0.235   0.248   0.256   0.264   0.273   0.273   0.271   0.268   0.266   0.265   0.262   0.261
   17 092   161     532     241       0      48     187       0       0       0     210    0.00     0.0     0.0    0.00    0.00   0.087   0.185   0.206   0.230   0.244   0.253   0.261   0.270   0.273   0.271   0.268   0.266   0.265   0.262   0.261
   17 093   162     533     241       0      48     190       0       0       0     210    0.00     0.0     0.0    0.00    0.00   0.140   0.180   0.201   0.227   0.242   0.251   0.259   0.268   0.273   0.271   0.268   0.266   0.265   0.262   0.261
   17 094   163     531     240       0      48     190       0       0       0     210    0.00     0.0     0.0    0.00    0.00   0.128   0.177   0.199   0.225   0.241   0.250   0.258   0.267   0.273   0.271   0.268   0.266   0.265   0.262   0.261
   17 095   164     530     238       0      48     190       0       0       0     210    0.00     0.0     0.0    0.00    0.00   0.118   0.175   0.197   0.224   0.240   0.249   0.257   0.266   0.272   0.271   0.268   0.266   0.265   0.262   0.261
   17 096   165     528     237       0      48     190       0       0       0     210    0.00     0.0     0.0    0.00    0.00   0.111   0.172   0.195   0.222   0.239   0.248   0.256   0.265   0.272   0.271   0.268   0.266   0.265   0.262   0.261
   17 097   166     528     236       0      48     190       0       0       0     210    0.00     0.0     0.0    0.00    0.00   0.104   0.171   0.194   0.222   0.238   0.247   0.255   0.265   0.272   0.271   0.268   0.266   0.265   0.262   0.261
   17 098   167     526     235       0      48     190       0       0       0     210    0.00     0.0     0.0    0.00    0.00   0.097   0.168   0.192   0.220   0.237   0.246   0.254   0.264   0.272   0.271   0.268   0.266   0.265   0.262   0.261
   17 099   168     524     233       0      48     190       0       0       0     210    0.00     0.0     0.0    0.00    0.00   0.091   0.165   0.188   0.217   0.234   0.244   0.252   0.262   0.272   0.271   0.268   0.266   0.265   0.262   0.261
   17 100   169     521     230       0      48     190       0       0       0     210    0.00     0.0     0.0    0.00    0.00   0.086   0.160   0.182   0.213   0.231   0.241   0.249   0.259   0.272   0.271   0.268   0.266   0.265   0.262   0.261
   17 101   170     519     227       0      48     190       0       0       0     210    0.00     0.0     0.0    0.00    0.00   0.081   0.156   0.176   0.208   0.227   0.238   0.246   0.256   0.272   0.271   0.268   0.266   0.265   0.262   0.261
   17 102   171     518     226       0      48     190       0       0       0     210    0.00     0.0     0.0    0.00    0.00   0.077   0.154   0.175   0.207   0.226   0.237   0.245   0.255   0.272   0.271   0.268   0.266   0.265   0.262   0.261
   17 103   172     516     225       0      48     190       0       0       0     210    0.00     0.0     0.0    0.00    0.00   0.073   0.152   0.171   0.204   0.224   0.235   0.243   0.253   0.272   0.271   0.268   0.266   0.265   0.262   0.261
   17 104   173     515     224       0      48     190       0       0       0     210    0.00     0.0     0.0    0.00    0.00   0.069   0.151   0.170   0.203   0.223   0.234   0.242   0.252   0.272   0.271   0.268   0.266   0.265   0.262   0.261
   17 105   174     515     223       0      48     190       0       0       0     210    0.00     0.0     0.0    0.00    0.00   0.066   0.150   0.169   0.202   0.222   0.234   0.242   0.252   0.272   0.271   0.268   0.266   0.265   0.262   0.261
   17 106   175     515     223       0      48     191       0       0       0     210    0.00     0.0     0.0    0.00    0.00   0.083   0.148   0.167   0.201   0.221   0.233   0.241   0.251   0.272   0.271   0.268   0.266   0.264   0.262   0.261
   17 107   176     523     231       0      48     199       0       0       0     210    0.00     0.0     0.0    0.00    0.00   0.237   0.150   0.167   0.201   0.221   0.233   0.241   0.251   0.272   0.271   0.268   0.266   0.264   0.262   0.261
   17 108   177     527     236       0      48     204       0       0       0     210    0.00     0.0     0.0    0.00    0.00   0.290   0.172   0.166   0.200   0.221   0.232   0.241   0.250   0.272   0.271   0.268   0.266   0.264   0.262   0.261
   17 109   178     527     235       0      48     204       0       0       0     210    0.00     0.0     0.0    0.00    0.00   0.262   0.185   0.166   0.200   0.221   0.232   0.240   0.250   0.272   0.270   0.268   0.266   0.264   0.262   0.261
   17 110   179     526     235       0      48     204       0       0       0     210    0.00     0.0     0.0    0.00    0.00   0.247   0.191   0.166   0.200   0.220   0.232   0.240   0.250   0.272   0.270   0.268   0.266   0.264   0.261   0.261
   17 111   180     526     234       0      48     204       0       0       0     210    0.00     0.0     0.0    0.00    0.00   0.239   0.193   0.165   0.199   0.220   0.231   0.240   0.250   0.271   0.270   0.268   0.266   0.264   0.261   0.260
   17 112   181     528     236       0      48     207       0       0       0     210    0.00     0.0     0.0    0.00    0.00   0.268   0.205   0.164   0.198   0.219   0.231   0.239   0.249   0.271   0.270   0.268   0.266   0.264   0.261   0.260
   17 113   182     527     236       0      48     207       0       0       0     210    0.00     0.0     0.0    0.00    0.00   0.250   0.212   0.163   0.198   0.219   0.230   0.239   0.249   0.271   0.270   0.267   0.266   0.264   0.261   0.260
   17 114   183     526     235       0      48     207       0       0       0     210    0.00     0.0     0.0    0.00    0.00   0.239   0.214   0.162   0.197   0.218   0.230   0.238   0.248   0.271   0.270   0.267   0.266   0.264   0.261   0.260
   17 115   184     543     252       1      48     226       0       0       0     210    0.00     0.0     0.0    0.46    0.00   0.317   0.300   0.261   0.201   0.216   0.228   0.237   0.247   0.270   0.270   0.267   0.266   0.264   0.261   0.260
   17 116   185     554     262       1      48     237       0       0       0     210    0.00     0.0     0.0    0.24    0.00   0.320   0.320   0.323   0.254   0.216   0.228   0.237   0.247   0.270   0.270   0.267   0.266   0.264   0.261   0.260
   17 117   186     570     279       3      48     255       0       0       0     210    0.00     0.0     0.0    1.61    0.00   0.321   0.320   0.324   0.330   0.284   0.245   0.236   0.246   0.270   0.270   0.267   0.266   0.264   0.261   0.260
   17 118   187     578     286       3      48     263       0       0       0     210    0.00     0.0     0.0    0.07    0.00   0.321   0.320   0.324   0.330   0.315   0.282   0.248   0.246   0.270   0.270   0.267   0.266   0.264   0.261   0.260
   17 119   188     573     282       3      52     263       0       0       0     210    0.00     0.0     0.0    0.00    0.00   0.277   0.282   0.287   0.296   0.291   0.276   0.276   0.276   0.275   0.273   0.270   0.268   0.266   0.263   0.262
   17 120   189     565     274       3      59     263       0       0       0     210    0.00     0.0     0.0    0.00    0.00   0.252   0.262   0.268   0.278   0.278   0.273   0.275   0.275   0.275   0.273   0.270   0.268   0.266   0.263   0.262
   17 121   190     582     291       3      59     282       0       0       0     210    0.00     0.0     0.0    0.82    0.00   0.318   0.319   0.322   0.299   0.291   0.283   0.281   0.278   0.276   0.273   0.270   0.268   0.266   0.263   0.262
   17 122   191     570     279       3      70     282       0       0       0     210    0.00     0.0     0.0    0.00    0.00   0.274   0.281   0.286   0.280   0.278   0.277   0.278   0.277   0.275   0.273   0.270   0.268   0.266   0.263   0.262
   17 123   192     565     273       3      75     282       0       0       0     210    0.00     0.0     0.0    0.00    0.00   0.253   0.262   0.268   0.270   0.272   0.273   0.278   0.277   0.275   0.273   0.270   0.268   0.266   0.263   0.262
   17 124   193     562     270       3      77     282       0       0       0     210    0.00     0.0     0.0    0.00    0.00   0.242   0.253   0.259   0.265   0.269   0.273   0.277   0.276   0.275   0.273   0.270   0.268   0.266   0.263   0.262
   17 125   194     560     269       3      78     282       0       0       0     210    0.00     0.0     0.0    0.00    0.00   0.237   0.248   0.254   0.263   0.268   0.272   0.276   0.276   0.275   0.273   0.270   0.268   0.266   0.263   0.262
   17 126   195     559     268       3      78     282       0       0       0     210    0.00     0.0     0.0    0.00    0.00   0.234   0.247   0.253   0.262   0.267   0.271   0.276   0.275   0.274   0.273   0.270   0.268   0.266   0.263   0.262
   17 127   196     567     275       3      78     291       0       0       0     210    0.00     0.0     0.0    0.00    0.00   0.317   0.267   0.274   0.266   0.269   0.271   0.276   0.274   0.274   0.273   0.270   0.268   0.266   0.263   0.262
   17 128   197     576     285       4      78     301       0       0       0     210    0.00     0.0     0.0    0.07    0.00   0.320   0.305   0.322   0.281   0.277   0.276   0.279   0.276   0.274   0.273   0.270   0.268   0.266   0.263   0.262
   17 129   198     568     277       4      86     301       0       0       0     210    0.00     0.0     0.0    0.00    0.00   0.277   0.275   0.286   0.271   0.272   0.273   0.278   0.276   0.275   0.273   0.270   0.268   0.266   0.263   0.262
   17 130   199     563     272       4      90     301       0       0       0     210    0.00     0.0     0.0    0.00    0.00   0.254   0.259   0.268   0.266   0.269   0.273   0.278   0.276   0.275   0.273   0.270   0.268   0.266   0.263   0.262
   17 131   200     560     269       4      91     301       0       0       0     210    0.00     0.0     0.0    0.00    0.00   0.241   0.250   0.258   0.262   0.268   0.272   0.277   0.275   0.275   0.273   0.270   0.268   0.266   0.263   0.262
   17 132   201     559     267       4      92     301       0       0       0     210    0.00     0.0     0.0    0.00    0.00   0.234   0.246   0.253   0.261   0.266   0.270   0.276   0.275   0.274   0.273   0.270   0.268   0.266   0.263   0.262
   17 133   202     558     266       4      92     301       0       0       0     210    0.00     0.0     0.0    0.00    0.00   0.230   0.244   0.251   0.259   0.265   0.269   0.275   0.274   0.274   0.273   0.270   0.268   0.266   0.263   0.262
   17 134   203     578     287       5      92     324       0       0       0     210    0.00     0.0     0.0    1.31    0.00   0.318   0.318   0.322   0.288   0.279   0.275   0.277   0.275   0.274   0.273   0.270   0.268   0.266   0.263   0.262
   17 135   204     580     289       5      92     327       0       0       0     210    0.00     0.0     0.0    0.00    0.00   0.310   0.296   0.322   0.300   0.291   0.285   0.283   0.279   0.275   0.272   0.270   0.268   0.266   0.263   0.262
   17 136   205     569     278       5     101     327       0       0       0     210    0.00     0.0     0.0    0.00    0.00   0.270   0.269   0.286   0.280   0.278   0.277   0.279   0.278   0.275   0.273   0.270   0.268   0.266   0.263   0.262
   17 137   206     563     271       5     106     327       0       0       0     210    0.00     0.0     0.0    0.00    0.00   0.248   0.255   0.266   0.269   0.271   0.273   0.277   0.277   0.274   0.273   0.270   0.268   0.266   0.263   0.262
   17 138   207     560     268       5     107     327       0       0       0     210    0.00     0.0     0.0    0.00    0.00   0.236   0.247   0.256   0.263   0.267   0.271   0.276   0.275   0.274   0.273   0.270   0.268   0.266   0.263   0.262
   17 139   208     557     266       5     107     327       0       0       0     210    0.00     0.0     0.0    0.00    0.00   0.230   0.243   0.250   0.260   0.265   0.269   0.274   0.274   0.273   0.273   0.270   0.268   0.266   0.263   0.262
   17 140   209     555     264       5     107     327       0       0       0     210    0.00     0.0     0.0    0.00    0.00   0.218   0.240   0.248   0.258   0.263   0.267   0.273   0.273   0.273   0.272   0.270   0.268   0.266   0.263   0.262
   17 141   210     554     262       5     107     327       0       0       0     210    0.00     0.0     0.0    0.00    0.00   0.208   0.238   0.246   0.257   0.262   0.266   0.272   0.272   0.272   0.272   0.270   0.268   0.266   0.263   0.262
   17 142   211     552     261       5     107     327       0       0       0     210    0.00     0.0     0.0    0.00    0.00   0.196   0.236   0.244   0.255   0.260   0.265   0.271   0.271   0.272   0.272   0.270   0.268   0.266   0.263   0.262
   17 143   212     550     259       5     107     327       0       0       0     210    0.00     0.0     0.0    0.00    0.00   0.183   0.232   0.241   0.253   0.259   0.264   0.269   0.269   0.271   0.272   0.270   0.268   0.266   0.263   0.262
   17 144   213     547     256       5     107     327       0       0       0     210    0.00     0.0     0.0    0.00    0.00   0.171   0.228   0.237   0.250   0.256   0.261   0.267   0.268   0.270   0.272   0.270   0.268   0.266   0.263   0.262
   17 145   214     546     255       5     107     327       0       0       0     210    0.00     0.0     0.0    0.00    0.00   0.162   0.226   0.236   0.249   0.255   0.261   0.267   0.267   0.270   0.272   0.270   0.268   0.266   0.263   0.262
   17 146   215     544     253       5     107     327       0       0       0     210    0.00     0.0     0.0    0.00    0.00   0.147   0.223   0.233   0.247   0.254   0.259   0.265   0.266   0.269   0.272   0.270   0.268   0.266   0.263   0.262
   17 147   216     540     249       5     107     327       0       0       0     210    0.00     0.0     0.0    0.00    0.00   0.132   0.216   0.227   0.243   0.250   0.256   0.262   0.263   0.268   0.271   0.270   0.268   0.266   0.263   0.262
   17 148   217     536     245       5     107     327       0       0       0     210    0.00     0.0     0.0    0.00    0.00   0.120   0.209   0.221   0.238   0.246   0.252   0.259   0.259   0.266   0.271   0.270   0.268   0.266   0.263   0.262
   17 149   218     531     240       5     107     327       0       0       0     210    0.00     0.0     0.0    0.00    0.00   0.110   0.200   0.213   0.231   0.240   0.247   0.254   0.255   0.264   0.270   0.269   0.268   0.266   0.263   0.262
   17 150   219     532     240       5     107     333       0       0       0     210    0.00     0.0     0.0    0.00    0.00   0.217   0.191   0.204   0.225   0.234   0.242   0.249   0.250   0.262   0.269   0.269   0.268   0.266   0.263   0.262
   17 151   220     528     236       5     107     333       0       0       0     210    0.00     0.0     0.0    0.00    0.00   0.194   0.186   0.199   0.220   0.231   0.239   0.246   0.248   0.260   0.269   0.269   0.268   0.266   0.263   0.262
   17 152   221     524     232       5     107     333       0       0       0     210    0.00     0.0     0.0    0.00    0.00   0.170   0.181   0.193   0.216   0.227   0.235   0.243   0.245   0.259   0.268   0.269   0.268   0.266   0.263   0.262
   17 153   222     519     227       5     107     333       0       0       0     210    0.00     0.0     0.0    0.00    0.00   0.148   0.175   0.186   0.210   0.222   0.231   0.239   0.241   0.257   0.267   0.269   0.268   0.266   0.263   0.262
   17 154   223     517     225       5     107     337       0       0       0     210    0.00     0.0     0.0    0.00    0.00   0.206   0.169   0.177   0.203   0.216   0.226   0.234   0.236   0.254   0.266   0.268   0.268   0.266   0.263   0.262
   17 155   224     511     219       5     107     337       0       0       0     210    0.00     0.0     0.0    0.00    0.00   0.179   0.163   0.168   0.196   0.210   0.220   0.229   0.231   0.252   0.265   0.268   0.268   0.266   0.263   0.262
   17 156   225     510     219       5     107     339       0       0       0     210    0.00     0.0     0.0    0.00    0.00   0.206   0.161   0.165   0.193   0.207   0.218   0.227   0.229   0.251   0.265   0.267   0.268   0.266   0.263   0.262
   17 157   226     514     222       5     107     345       0       0       0     210    0.00     0.0     0.0    0.00    0.00   0.275   0.179   0.161   0.190   0.204   0.215   0.225   0.227   0.249   0.264   0.267   0.268   0.266   0.263   0.262
   17 158   227     512     221       5     107     345       0       0       0     210    0.00     0.0     0.0    0.00    0.00   0.249   0.187   0.160   0.189   0.203   0.214   0.224   0.226   0.249   0.264   0.267   0.267   0.266   0.263   0.262
   17 159   228     509     218       5     107     345       0       0       0     210    0.00     0.0     0.0    0.00    0.00   0.231   0.187   0.156   0.186   0.201   0.212   0.222   0.224   0.248   0.263   0.266   0.267   0.265   0.262   0.261
   17 160   229     509     218       5     107     351       0       0       0     210    0.00     0.0     0.0    0.00    0.00   0.276   0.205   0.149   0.181   0.194   0.207   0.217   0.219   0.245   0.262   0.265   0.267   0.265   0.262   0.261
   17 161   230     503     212       5     107     351       0       0       0     210    0.00     0.0     0.0    0.00    0.00   0.233   0.206   0.144   0.176   0.189   0.201   0.212   0.215   0.242   0.260   0.265   0.267   0.265   0.262   0.261
   17 162   231     498     207       5     107     351       0       0       0     210    0.00     0.0     0.0    0.00    0.00   0.199   0.198   0.141   0.173   0.185   0.197   0.208   0.211   0.240   0.260   0.264   0.267   0.265   0.262   0.261
   17 163   232     490     199       5     107     351       0       0       0     210    0.00     0.0     0.0    0.00    0.00   0.161   0.187   0.136   0.167   0.179   0.191   0.202   0.205   0.237   0.258   0.263   0.266   0.265   0.262   0.261
   17 164   233     485     194       5     107     351       0       0       0     210    0.00     0.0     0.0    0.00    0.00   0.139   0.179   0.133   0.164   0.175   0.186   0.197   0.200   0.234   0.257   0.263   0.266   0.265   0.262   0.261
   17 165   234     480     188       5     107     351       0       0       0     210    0.00     0.0     0.0    0.00    0.00   0.122   0.171   0.130   0.160   0.170   0.180   0.191   0.195   0.231   0.255   0.262   0.266   0.265   0.262   0.261
   17 166   235     478     186       5     107     354       0       0       0     210    0.00     0.0     0.0    0.00    0.00   0.168   0.164   0.129   0.157   0.166   0.176   0.186   0.189   0.228   0.254   0.261   0.266   0.265   0.262   0.261
   17 167   236     471     180       5     107     354       0       0       0     210    0.00     0.0     0.0    0.00    0.00   0.137   0.156   0.127   0.153   0.162   0.170   0.180   0.183   0.224   0.251   0.260   0.266   0.265   0.262   0.261
   17 168   237     467     176       5     107     354       0       0       0     210    0.00     0.0     0.0    0.00    0.00   0.121   0.151   0.126   0.151   0.159   0.167   0.176   0.179   0.221   0.250   0.259   0.265   0.265   0.262   0.261
   17 169   238     465     173       5     107     354       0       0       0     210    0.00     0.0     0.0    0.00    0.00   0.111   0.148   0.125   0.149   0.157   0.165   0.174   0.176   0.219   0.249   0.259   0.265   0.265   0.262   0.261
   17 170   239     460     169       5     107     354       0       0       0     210    0.00     0.0     0.0    0.00    0.00   0.103   0.143   0.124   0.146   0.154   0.162   0.170   0.172   0.215   0.247   0.258   0.264   0.265   0.262   0.261
   17 171   240     454     163       5     107     354       0       0       0     210    0.00     0.0     0.0    0.00    0.00   0.097   0.136   0.123   0.143   0.150   0.156   0.164   0.165   0.207   0.243   0.256   0.264   0.265   0.262   0.261
   17 172   241     449     157       5     107     354       0       0       0     210    0.00     0.0     0.0    0.00    0.00   0.091   0.130   0.123   0.140   0.147   0.152   0.159   0.160   0.200   0.239   0.254   0.264   0.265   0.262   0.261
   17 173   242     448     156       5     107     358       0       0       0     210    0.00     0.0     0.0    0.00    0.00   0.162   0.126   0.123   0.138   0.144   0.150   0.156   0.157   0.193   0.235   0.253   0.264   0.265   0.262   0.261
   17 174   243     442     151       5     107     358       0       0       0     210    0.00     0.0     0.0    0.00    0.00   0.124   0.124   0.123   0.137   0.143   0.148   0.154   0.154   0.187   0.231   0.251   0.263   0.265   0.262   0.261
   17 175   244     438     147       5     107     358       0       0       0     210    0.00     0.0     0.0    0.00    0.00   0.108   0.122   0.123   0.136   0.141   0.146   0.152   0.152   0.182   0.227   0.250   0.262   0.265   0.262   0.261
   17 176   245     435     144       5     107     359       0       0       0     210    0.00     0.0     0.0    0.00    0.00   0.120   0.120   0.122   0.135   0.140   0.145   0.150   0.151   0.176   0.223   0.248   0.262   0.265   0.262   0.261
   17 177   246     437     145       5     107     363       0       0       0     210    0.00     0.0     0.0    0.00    0.00   0.185   0.119   0.122   0.134   0.140   0.144   0.150   0.150   0.173   0.220   0.247   0.261   0.265   0.262   0.261
   17 178   247     439     148       5     107     371       0       0       0     210    0.00     0.0     0.0    0.00    0.00   0.247   0.142   0.122   0.133   0.139   0.143   0.149   0.149   0.169   0.216   0.244   0.259   0.264   0.262   0.261
   17 179   248     447     156       5     107     383       0       0       0     210    0.00     0.0     0.0    0.00    0.00   0.290   0.221   0.121   0.133   0.138   0.143   0.148   0.148   0.168   0.214   0.243   0.258   0.264   0.261   0.260
   17 180   249     446     155       5     107     385       0       0       0     210    0.00     0.0     0.0    0.00    0.00   0.262   0.233   0.121   0.132   0.138   0.142   0.148   0.148   0.166   0.212   0.243   0.258   0.264   0.261   0.260
   17 181   250     443     151       5     107     385       0       0       0     210    0.00     0.0     0.0    0.00    0.00   0.227   0.231   0.120   0.132   0.138   0.142   0.147   0.148   0.165   0.211   0.242   0.257   0.263   0.261   0.260
   17 182   251     440     148       5     107     385       0       0       0     210    0.00     0.0     0.0    0.00    0.00   0.187   0.220   0.120   0.132   0.137   0.142   0.147   0.148   0.164   0.211   0.242   0.257   0.263   0.261   0.260
   17 183   252     437     145       5     107     385       0       0       0     210    0.00     0.0     0.0    0.00    0.00   0.159   0.210   0.120   0.132   0.137   0.142   0.147   0.147   0.163   0.211   0.242   0.257   0.263   0.261   0.260
   17 184   253     435     144       5     107     385       0       0       0     210    0.00     0.0     0.0    0.00    0.00   0.142   0.205   0.119   0.132   0.137   0.142   0.147   0.147   0.163   0.211   0.242   0.257   0.263   0.261   0.260
   17 185   254     433     141       5     107     385       0       0       0     210    0.00     0.0     0.0    0.00    0.00   0.122   0.191   0.119   0.132   0.137   0.142   0.147   0.147   0.162   0.211   0.242   0.257   0.263   0.261   0.260
   17 186   255     429     138       5     107     385       0       0       0     210    0.00     0.0     0.0    0.00    0.00   0.105   0.168   0.119   0.131   0.137   0.142   0.147   0.147   0.159   0.211   0.242   0.257   0.263   0.261   0.260
   17 187   256     424     132       5     107     385       0       0       0     210    0.00     0.0     0.0    0.00    0.00   0.099   0.119   0.119   0.131   0.137   0.142   0.147   0.147   0.159   0.211   0.242   0.257   0.263   0.261   0.260
   17 188   257     423     132       5     107     385       0       0       0     210    0.00     0.0     0.0    0.00    0.00   0.093   0.118   0.119   0.131   0.137   0.142   0.147   0.147   0.159   0.211   0.242   0.257   0.263   0.261   0.260
   17 189   258     423     131       5     107     385       0       0       0     210    0.00     0.0     0.0    0.00    0.00   0.087   0.117   0.119   0.131   0.137   0.142   0.147   0.147   0.159   0.210   0.242   0.257   0.263   0.261   0.260
   17 190   259     446     154       5     107     409       0       0       0     210    0.00     0.0     0.0    0.05    0.00   0.306   0.239   0.118   0.131   0.137   0.142   0.147   0.147   0.159   0.210   0.242   0.257   0.263   0.261   0.260
   17 191   260     448     157       5     107     415       0       0       0     210    0.00     0.0     0.0    0.00    0.00   0.291   0.258   0.163   0.130   0.137   0.141   0.146   0.147   0.159   0.210   0.241   0.257   0.263   0.260   0.259
   17 192   261     448     156       5     107     418       0       0       0     210    0.00     0.0     0.0    0.00    0.00   0.272   0.255   0.194   0.130   0.136   0.141   0.146   0.146   0.158   0.209   0.240   0.256   0.262   0.260   0.259
   17 193   262     448     156       5     107     421       0       0       0     210    0.00     0.0     0.0    0.00    0.00   0.267   0.253   0.219   0.129   0.135   0.140   0.145   0.146   0.158   0.209   0.240   0.256   0.262   0.259   0.259
   17 194   263     443     152       5     107     421       0       0       0     210    0.00     0.0     0.0    0.00    0.00   0.223   0.239   0.234   0.128   0.134   0.139   0.145   0.145   0.157   0.208   0.239   0.255   0.261   0.258   0.258
   17 195   264     449     157       5     107     430       0       0       0     210    0.00     0.0     0.0    0.00    0.00   0.297   0.254   0.253   0.131   0.134   0.139   0.144   0.144   0.157   0.207   0.238   0.254   0.260   0.258   0.257
   17 196   265     445     154       5     107     430       0       0       0     210    0.00     0.0     0.0    0.00    0.00   0.246   0.243   0.247   0.149   0.133   0.138   0.144   0.144   0.156   0.207   0.238   0.254   0.260   0.257   0.257
   17 197   266     441     150       5     107     430       0       0       0     210    0.00     0.0     0.0    0.00    0.00   0.219   0.237   0.241   0.147   0.132   0.137   0.143   0.143   0.155   0.206   0.237   0.253   0.259   0.257   0.256
   17 198   267     439     147       5     107     430       0       0       0     210    0.00     0.0     0.0    0.00    0.00   0.192   0.231   0.237   0.146   0.132   0.137   0.143   0.143   0.155   0.206   0.237   0.253   0.259   0.257   0.256
   17 199   268     437     145       5     107     430       0       0       0     210    0.00     0.0     0.0    0.00    0.00   0.169   0.226   0.233   0.145   0.132   0.137   0.143   0.143   0.155   0.206   0.237   0.253   0.259   0.257   0.256
   17 200   269     435     143       5     107     430       0       0       0     210    0.00     0.0     0.0    0.00    0.00   0.149   0.220   0.228   0.144   0.131   0.137   0.143   0.143   0.154   0.206   0.237   0.253   0.259   0.257   0.256
   17 201   270     433     142       5     107     430       0       0       0     210    0.00     0.0     0.0    0.00    0.00   0.134   0.216   0.225   0.144   0.131   0.137   0.143   0.143   0.154   0.206   0.237   0.253   0.259   0.257   0.256
   17 202   271     433     141       5     107     430       0       0       0     210    0.00     0.0     0.0    0.00    0.00   0.125   0.214   0.224   0.143   0.131   0.137   0.142   0.143   0.154   0.206   0.237   0.252   0.259   0.257   0.256
   17 203   272     435     144       5     107     433       0       0       0     210    0.00     0.0     0.0    0.00    0.00   0.174   0.213   0.224   0.143   0.131   0.137   0.142   0.143   0.154   0.206   0.237   0.252   0.259   0.257   0.256
   17 204   273     434     143       5     107     433       0       0       0     210    0.00     0.0     0.0    0.00    0.00   0.161   0.212   0.223   0.143   0.131   0.137   0.142   0.143   0.154   0.206   0.237   0.252   0.259   0.257   0.256
   17 205   274     437     146       5     107     437       0       0       0     210    0.00     0.0     0.0    0.00    0.00   0.224   0.212   0.223   0.143   0.131   0.137   0.142   0.143   0.154   0.206   0.237   0.252   0.259   0.257   0.256
   17 206   275     456     164       6     107     459       0       0       0     210    0.00     0.0     0.0    0.83    0.00   0.307   0.306   0.299   0.167   0.130   0.136   0.142   0.142   0.154   0.205   0.236   0.252   0.258   0.256   0.255
   17 207   276     478     187      10     107     487       0       0       0     210    0.00     0.0     0.0    4.34    0.00   0.314   0.318   0.322   0.314   0.183   0.136   0.142   0.142   0.153   0.205   0.236   0.251   0.258   0.256   0.255
   17 208   277     482     190      10     107     493       0       0       0     210    0.00     0.0     0.0    0.00    0.00   0.309   0.306   0.321   0.318   0.240   0.135   0.141   0.142   0.153   0.204   0.235   0.251   0.257   0.255   0.255
   17 209   278     477     186      10     107     493       0       0       0     210    0.00     0.0     0.0    0.00    0.00   0.252   0.268   0.281   0.286   0.264   0.200   0.140   0.141   0.152   0.203   0.234   0.250   0.256   0.254   0.254
   17 210   279     471     180      10     107     493       0       0       0     210    0.00     0.0     0.0    0.00    0.00   0.218   0.247   0.259   0.268   0.263   0.229   0.139   0.140   0.151   0.202   0.232   0.248   0.255   0.253   0.253
   17 211   280     467     176      10     107     495       0       0       0     210    0.00     0.0     0.0    0.00    0.00   0.224   0.239   0.252   0.261   0.263   0.226   0.137   0.139   0.150   0.200   0.231   0.247   0.254   0.252   0.252
   17 212   281     466     175      10     107     495       0       0       0     210    0.00     0.0     0.0    0.00    0.00   0.206   0.238   0.251   0.261   0.263   0.226   0.137   0.138   0.150   0.200   0.231   0.247   0.254   0.252   0.252
   17 213   282     468     176      10     107     503       0       0       0     210    0.00     0.0     0.0    0.00    0.00   0.279   0.246   0.255   0.258   0.260   0.223   0.136   0.137   0.149   0.199   0.229   0.245   0.252   0.250   0.250
   17 214   283     462     170      10     107     503       0       0       0     210    0.00     0.0     0.0    0.00    0.00   0.230   0.236   0.248   0.257   0.263   0.220   0.135   0.136   0.147   0.197   0.228   0.244   0.251   0.249   0.249
   17 215   284     465     173      10     107     510       0       0       0     210    0.00     0.0     0.0    0.00    0.00   0.292   0.250   0.256   0.257   0.260   0.218   0.134   0.135   0.147   0.196   0.227   0.243   0.250   0.248   0.248
   17 216   285     461     169      10     107     510       0       0       0     210    0.00     0.0     0.0    0.00    0.00   0.245   0.241   0.249   0.258   0.264   0.222   0.133   0.135   0.146   0.195   0.226   0.242   0.249   0.247   0.248
   17 217   286     455     163      10     107     510       0       0       0     210    0.00     0.0     0.0    0.00    0.00   0.215   0.234   0.243   0.253   0.260   0.219   0.132   0.133   0.145   0.194   0.224   0.240   0.248   0.246   0.246
   17 218   287     454     162      10     107     510       0       0       0     210    0.00     0.0     0.0    0.00    0.00   0.198   0.233   0.242   0.253   0.260   0.219   0.132   0.133   0.145   0.194   0.224   0.240   0.248   0.246   0.246
   17 219   288     453     161      10     107     510       0       0       0     210    0.00     0.0     0.0    0.00    0.00   0.183   0.231   0.242   0.253   0.260   0.219   0.132   0.133   0.145   0.194   0.224   0.240   0.248   0.246   0.246

*DSSAT Cropping System Model Ver. 4.8.5.000 -release  NOV 27, 2025 15:48:48

*RUN   2        : 2                         WHAPS048 TUDU1701    2
 MODEL          : WHAPS048 - Wheat
 EXPERIMENT     : TUDU1701 WH
 DATA PATH      :
 TREATMENT  2   : 2                         WHAPS048
  
!                                                                                                                                   Soil water content (mm3/mm3) by soil depth (cm):
!                                                                                                                                   0-5    5-15   15-20   20-30   30-40   40-50   50-60   60-70   70-90  90-110 110-130 130-150 150-170 170-190 190-210
@YEAR DOY   DAS    SWTD    SWXD    ROFC    DRNC    PREC    IR#C    IRRC   LATFC    DTWT    MWTD    TDFD    TDFC    ROFD    ROSD    SW1D    SW2D    SW3D    SW4D    SW5D    SW6D    SW7D    SW8D    SW9D   SW10D   SW11D   SW12D   SW13D   SW14D   SW15D
   16 297     0     545     253       0       0       0       0       0       0     210    0.00     0.0     0.0    0.00    0.00   0.223   0.234   0.249   0.249   0.269   0.269   0.269   0.268   0.268   0.264   0.259   0.259   0.259   0.259   0.259
   16 298     1     545     254       0       0       2       0       0       0     210    0.00     0.0     0.0    0.00    0.00   0.257   0.238   0.248   0.248   0.268   0.268   0.268   0.267   0.267   0.264   0.259   0.259   0.259   0.259   0.259
   16 299     2     546     254       0       0       3       0       0       0     210    0.00     0.0     0.0    0.00    0.00   0.256   0.246   0.247   0.247   0.268   0.268   0.268   0.267   0.267   0.263   0.258   0.259   0.259   0.259   0.259
   16 300     3     545     254       0       0       3       0       0       0     210    0.00     0.0     0.0    0.00    0.00   0.243   0.245   0.251   0.249   0.267   0.267   0.268   0.267   0.267   0.263   0.258   0.258   0.258   0.258   0.258
   16 301     4     544     252       0       0       3       0       0       0     210    0.00     0.0     0.0    0.00    0.00   0.235   0.244   0.251   0.249   0.266   0.267   0.267   0.266   0.267   0.263   0.258   0.258   0.258   0.258   0.258
   16 302     5     542     251       0       0       3       0       0       0     210    0.00     0.0     0.0    0.00    0.00   0.215   0.243   0.250   0.248   0.266   0.267   0.267   0.266   0.267   0.263   0.258   0.258   0.258   0.258   0.258
   16 303     6     542     250       0       0       3       0       0       0     210    0.00     0.0     0.0    0.00    0.00   0.199   0.242   0.250   0.248   0.266   0.267   0.267   0.266   0.266   0.263   0.258   0.258   0.258   0.258   0.258
   16 304     7     541     249       0       0       3       0       0       0     210    0.00     0.0     0.0    0.00    0.00   0.183   0.241   0.250   0.248   0.266   0.267   0.267   0.266   0.266   0.263   0.258   0.258   0.258   0.258   0.258
   16 305     8     540     248       0       0       3       0       0       0     210    0.00     0.0     0.0    0.00    0.00   0.168   0.239   0.249   0.248   0.266   0.267   0.267   0.266   0.266   0.263   0.258   0.258   0.258   0.258   0.258
   16 306     9     539     248       0       0       3       0       0       0     210    0.00     0.0     0.0    0.00    0.00   0.155   0.238   0.249   0.248   0.266   0.266   0.267   0.266   0.266   0.263   0.258   0.258   0.258   0.258   0.258
   16 307    10     538     247       0       0       3       0       0       0     210    0.00     0.0     0.0    0.00    0.00   0.147   0.237   0.248   0.248   0.266   0.266   0.267   0.266   0.266   0.263   0.258   0.258   0.258   0.258   0.258
   16 308    11     538     246       0       0       3       0       0       0     210    0.00     0.0     0.0    0.00    0.00   0.135   0.236   0.248   0.247   0.266   0.266   0.267   0.266   0.266   0.263   0.258   0.258   0.258   0.258   0.258
   16 309    12     537     246       0       0       3       0       0       0     210    0.00     0.0     0.0    0.00    0.00   0.125   0.235   0.248   0.247   0.266   0.266   0.267   0.266   0.266   0.263   0.258   0.258   0.258   0.258   0.258
   16 310    13     546     255       0       0      13       0       0       0     210    0.00     0.0     0.0    0.00    0.00   0.279   0.250   0.255   0.248   0.265   0.266   0.267   0.266   0.266   0.263   0.258   0.258   0.258   0.258   0.258
   16 311    14     554     263       0       0      21       0       0       0     210    0.00     0.0     0.0    0.00    0.00   0.318   0.277   0.285   0.263   0.267   0.266   0.267   0.266   0.266   0.263   0.258   0.258   0.258   0.258   0.258
   16 312    15     554     262       0       0      21       0       0       0     210    0.00     0.0     0.0    0.00    0.00   0.275   0.261   0.268   0.263   0.267   0.271   0.276   0.276   0.275   0.263   0.258   0.258   0.258   0.258   0.258
   16 313    16     553     262       0       0      21       0       0       0     210    0.00     0.0     0.0    0.00    0.00   0.254   0.253   0.260   0.263   0.267   0.271   0.276   0.276   0.275   0.273   0.258   0.258   0.258   0.258   0.258
   16 314    17     556     264       0       0      24       0       0       0     210    0.00     0.0     0.0    0.00    0.00   0.277   0.258   0.268   0.266   0.269   0.273   0.276   0.276   0.275   0.273   0.258   0.258   0.258   0.258   0.258
   16 315    18     562     271       0       0      31       0       0       0     210    0.00     0.0     0.0    0.00    0.00   0.318   0.275   0.289   0.273   0.273   0.275   0.278   0.277   0.275   0.273   0.258   0.258   0.258   0.258   0.258
   16 316    19     567     276       0       0      36       0       0       0     210    0.00     0.0     0.0    0.00    0.00   0.319   0.284   0.309   0.282   0.280   0.279   0.281   0.279   0.276   0.273   0.258   0.257   0.258   0.258   0.258
   16 317    20     567     275       0       0      36       0       0       0     210    0.00     0.0     0.0    0.00    0.00   0.276   0.265   0.280   0.272   0.273   0.275   0.278   0.277   0.276   0.273   0.270   0.268   0.266   0.263   0.260
   16 318    21     563     272       0       3      36       0       0       0     210    0.00     0.0     0.0    0.00    0.00   0.255   0.255   0.266   0.267   0.270   0.273   0.278   0.277   0.276   0.273   0.270   0.268   0.266   0.263   0.262
   16 319    22     561     270       0       5      36       0       0       0     210    0.00     0.0     0.0    0.00    0.00   0.244   0.250   0.259   0.264   0.268   0.273   0.278   0.277   0.276   0.273   0.270   0.268   0.266   0.263   0.262
   16 320    23     566     275       0       5      41       0       0       0     210    0.00     0.0     0.0    0.00    0.00   0.294   0.260   0.269   0.267   0.270   0.273   0.278   0.278   0.276   0.273   0.270   0.268   0.266   0.263   0.262
   16 321    24     574     282       0       5      49       0       0       0     210    0.00     0.0     0.0    0.00    0.00   0.319   0.286   0.300   0.277   0.276   0.276   0.280   0.279   0.278   0.273   0.270   0.268   0.266   0.263   0.262
[...]
   17 140   209     553     261       5     107     327       0       0       0     210    0.00     0.0     0.0    0.00    0.00   0.199   0.238   0.250   0.258   0.263   0.266   0.272   0.272   0.272   0.272   0.269   0.267   0.265   0.262   0.261
   17 141   210     551     260       5     107     327       0       0       0     210    0.00     0.0     0.0    0.00    0.00   0.182   0.236   0.249   0.257   0.263   0.266   0.271   0.272   0.272   0.271   0.269   0.267   0.265   0.262   0.261
   17 142   211     550     258       5     107     327       0       0       0     210    0.00     0.0     0.0    0.00    0.00   0.167   0.234   0.248   0.256   0.262   0.265   0.271   0.271   0.271   0.271   0.269   0.267   0.265   0.262   0.261
   17 143   212     548     257       5     107     327       0       0       0     210    0.00     0.0     0.0    0.00    0.00   0.152   0.232   0.246   0.255   0.261   0.264   0.270   0.270   0.271   0.271   0.269   0.267   0.265   0.262   0.261
   17 144   213     546     255       5     107     327       0       0       0     210    0.00     0.0     0.0    0.00    0.00   0.138   0.229   0.244   0.253   0.259   0.263   0.269   0.269   0.270   0.271   0.269   0.267   0.265   0.262   0.261
   17 145   214     545     254       5     107     327       0       0       0     210    0.00     0.0     0.0    0.00    0.00   0.127   0.227   0.243   0.253   0.259   0.262   0.268   0.269   0.270   0.271   0.269   0.267   0.265   0.262   0.261
   17 146   215     544     252       5     107     327       0       0       0     210    0.00     0.0     0.0    0.00    0.00   0.118   0.225   0.241   0.251   0.258   0.262   0.267   0.268   0.270   0.271   0.269   0.267   0.265   0.262   0.261
   17 147   216     542     250       5     107     327       0       0       0     210    0.00     0.0     0.0    0.00    0.00   0.109   0.221   0.239   0.250   0.256   0.260   0.266   0.267   0.269   0.270   0.269   0.267   0.265   0.262   0.261
   17 148   217     540     248       5     107     327       0       0       0     210    0.00     0.0     0.0    0.00    0.00   0.102   0.218   0.236   0.247   0.254   0.258   0.265   0.265   0.268   0.270   0.269   0.267   0.265   0.262   0.261
   17 149   218     537     246       5     107     327       0       0       0     210    0.00     0.0     0.0    0.00    0.00   0.095   0.213   0.232   0.245   0.252   0.256   0.263   0.264   0.267   0.269   0.269   0.267   0.265   0.262   0.261
   17 150   219     541     249       5     107     333       0       0       0     210    0.00     0.0     0.0    0.00    0.00   0.204   0.209   0.229   0.241   0.249   0.254   0.260   0.262   0.265   0.269   0.269   0.267   0.265   0.262   0.261
   17 151   220     538     247       5     107     333       0       0       0     210    0.00     0.0     0.0    0.00    0.00   0.185   0.205   0.226   0.239   0.247   0.252   0.259   0.260   0.264   0.268   0.269   0.267   0.265   0.262   0.261
   17 152   221     536     244       5     107     333       0       0       0     210    0.00     0.0     0.0    0.00    0.00   0.168   0.202   0.224   0.238   0.246   0.251   0.258   0.259   0.263   0.268   0.269   0.267   0.265   0.262   0.261
   17 153   222     533     242       5     107     333       0       0       0     210    0.00     0.0     0.0    0.00    0.00   0.152   0.199   0.221   0.236   0.244   0.249   0.256   0.258   0.263   0.267   0.268   0.267   0.265   0.262   0.261
   17 154   223     534     243       5     107     337       0       0       0     210    0.00     0.0     0.0    0.00    0.00   0.212   0.195   0.217   0.233   0.241   0.247   0.254   0.256   0.261   0.267   0.268   0.267   0.265   0.262   0.261
   17 155   224     530     239       5     107     337       0       0       0     210    0.00     0.0     0.0    0.00    0.00   0.188   0.189   0.213   0.229   0.238   0.244   0.252   0.253   0.259   0.266   0.267   0.267   0.265   0.262   0.261
   17 156   225     530     239       5     107     339       0       0       0     210    0.00     0.0     0.0    0.00    0.00   0.210   0.187   0.211   0.228   0.237   0.243   0.251   0.253   0.259   0.266   0.267   0.267   0.265   0.262   0.261
   17 157   226     534     243       5     107     345       0       0       0     210    0.00     0.0     0.0    0.00    0.00   0.281   0.206   0.209   0.226   0.235   0.241   0.249   0.251   0.258   0.265   0.267   0.267   0.264   0.262   0.261
   17 158   227     531     240       5     107     345       0       0       0     210    0.00     0.0     0.0    0.00    0.00   0.249   0.214   0.206   0.224   0.234   0.240   0.248   0.250   0.257   0.264   0.266   0.266   0.264   0.261   0.260
   17 159   228     528     236       5     107     345       0       0       0     210    0.00     0.0     0.0    0.00    0.00   0.228   0.212   0.203   0.221   0.231   0.238   0.246   0.248   0.255   0.263   0.265   0.265   0.263   0.261   0.260
   17 160   229     528     237       5     107     351       0       0       0     210    0.00     0.0     0.0    0.00    0.00   0.280   0.229   0.197   0.216   0.227   0.234   0.242   0.245   0.253   0.261   0.264   0.265   0.263   0.260   0.259
   17 161   230     522     231       5     107     351       0       0       0     210    0.00     0.0     0.0    0.00    0.00   0.238   0.232   0.191   0.211   0.222   0.230   0.239   0.242   0.250   0.260   0.262   0.264   0.262   0.259   0.259
   17 162   231     516     225       5     107     351       0       0       0     210    0.00     0.0     0.0    0.00    0.00   0.218   0.224   0.185   0.206   0.218   0.226   0.236   0.239   0.248   0.258   0.261   0.263   0.261   0.259   0.258
   17 163   232     512     220       5     107     351       0       0       0     210    0.00     0.0     0.0    0.00    0.00   0.193   0.218   0.180   0.202   0.214   0.223   0.233   0.236   0.246   0.257   0.260   0.263   0.261   0.259   0.258
   17 164   233     508     217       5     107     351       0       0       0     210    0.00     0.0     0.0    0.00    0.00   0.173   0.213   0.177   0.199   0.212   0.221   0.230   0.234   0.244   0.256   0.259   0.263   0.261   0.259   0.258
   17 165   234     505     214       5     107     351       0       0       0     210    0.00     0.0     0.0    0.00    0.00   0.154   0.208   0.173   0.196   0.209   0.218   0.228   0.232   0.243   0.255   0.259   0.263   0.261   0.259   0.258
   17 166   235     505     213       5     107     354       0       0       0     210    0.00     0.0     0.0    0.00    0.00   0.196   0.204   0.170   0.193   0.207   0.216   0.226   0.230   0.242   0.254   0.258   0.263   0.261   0.259   0.258
   17 167   236     501     210       5     107     354       0       0       0     210    0.00     0.0     0.0    0.00    0.00   0.174   0.199   0.166   0.190   0.203   0.213   0.224   0.228   0.240   0.253   0.258   0.262   0.261   0.259   0.258
   17 168   237     498     207       5     107     354       0       0       0     210    0.00     0.0     0.0    0.00    0.00   0.157   0.195   0.164   0.188   0.202   0.212   0.222   0.226   0.239   0.253   0.257   0.262   0.261   0.259   0.258
   17 169   238     496     205       5     107     354       0       0       0     210    0.00     0.0     0.0    0.00    0.00   0.144   0.193   0.162   0.186   0.200   0.210   0.221   0.225   0.238   0.252   0.257   0.262   0.261   0.259   0.258
   17 170   239     494     202       5     107     354       0       0       0     210    0.00     0.0     0.0    0.00    0.00   0.129   0.189   0.159   0.184   0.198   0.209   0.220   0.224   0.237   0.251   0.256   0.262   0.261   0.259   0.258
   17 171   240     490     199       5     107     354       0       0       0     210    0.00     0.0     0.0    0.00    0.00   0.116   0.184   0.155   0.181   0.195   0.206   0.217   0.222   0.235   0.250   0.256   0.262   0.261   0.259   0.258
   17 172   241     487     196       5     107     354       0       0       0     210    0.00     0.0     0.0    0.00    0.00   0.107   0.179   0.151   0.177   0.192   0.203   0.215   0.219   0.234   0.249   0.255   0.261   0.261   0.259   0.258
   17 173   242     488     197       5     107     358       0       0       0     210    0.00     0.0     0.0    0.00    0.00   0.177   0.175   0.148   0.175   0.190   0.201   0.213   0.218   0.232   0.248   0.254   0.261   0.261   0.259   0.258
   17 174   243     485     194       5     107     358       0       0       0     210    0.00     0.0     0.0    0.00    0.00   0.159   0.171   0.145   0.172   0.187   0.199   0.211   0.216   0.231   0.248   0.254   0.261   0.261   0.259   0.258
   17 175   244     483     191       5     107     358       0       0       0     210    0.00     0.0     0.0    0.00    0.00   0.143   0.168   0.142   0.170   0.185   0.197   0.210   0.214   0.230   0.247   0.254   0.261   0.261   0.259   0.258
   17 176   245     481     190       5     107     359       0       0       0     210    0.00     0.0     0.0    0.00    0.00   0.150   0.165   0.140   0.168   0.184   0.196   0.208   0.213   0.229   0.246   0.253   0.260   0.261   0.259   0.258
   17 177   246     484     192       5     107     363       0       0       0     210    0.00     0.0     0.0    0.00    0.00   0.214   0.163   0.139   0.167   0.183   0.195   0.208   0.213   0.229   0.246   0.253   0.260   0.261   0.259   0.258
   17 178   247     487     195       5     107     371       0       0       0     210    0.00     0.0     0.0    0.00    0.00   0.293   0.188   0.135   0.164   0.180   0.192   0.205   0.210   0.227   0.244   0.252   0.259   0.260   0.258   0.257
   17 179   248     495     203       5     107     383       0       0       0     210    0.00     0.0     0.0    0.00    0.00   0.303   0.264   0.180   0.161   0.178   0.190   0.203   0.208   0.225   0.243   0.251   0.258   0.260   0.257   0.257
   17 180   249     494     202       5     107     385       0       0       0     210    0.00     0.0     0.0    0.00    0.00   0.281   0.262   0.220   0.159   0.176   0.188   0.202   0.207   0.224   0.242   0.250   0.257   0.259   0.257   0.256
   17 181   250     489     198       5     107     385       0       0       0     210    0.00     0.0     0.0    0.00    0.00   0.241   0.247   0.248   0.160   0.174   0.187   0.200   0.205   0.222   0.241   0.249   0.256   0.258   0.256   0.256
   17 182   251     486     194       5     107     385       0       0       0     210    0.00     0.0     0.0    0.00    0.00   0.225   0.242   0.246   0.158   0.172   0.185   0.198   0.204   0.221   0.240   0.248   0.256   0.258   0.256   0.255
   17 183   252     484     193       5     107     385       0       0       0     210    0.00     0.0     0.0    0.00    0.00   0.207   0.240   0.245   0.157   0.171   0.184   0.198   0.203   0.221   0.239   0.248   0.255   0.258   0.256   0.255
   17 184   253     483     191       5     107     385       0       0       0     210    0.00     0.0     0.0    0.00    0.00   0.190   0.238   0.244   0.157   0.171   0.184   0.197   0.203   0.221   0.239   0.248   0.255   0.258   0.256   0.255
   17 185   254     481     190       5     107     385       0       0       0     210    0.00     0.0     0.0    0.00    0.00   0.175   0.236   0.242   0.156   0.170   0.183   0.197   0.202   0.220   0.239   0.247   0.255   0.258   0.256   0.255
   17 186   255     479     188       5     107     385       0       0       0     210    0.00     0.0     0.0    0.00    0.00   0.160   0.233   0.240   0.155   0.169   0.182   0.196   0.202   0.220   0.239   0.247   0.255   0.258   0.256   0.255
   17 187   256     477     185       5     107     385       0       0       0     210    0.00     0.0     0.0    0.00    0.00   0.145   0.229   0.238   0.153   0.167   0.181   0.195   0.200   0.219   0.238   0.247   0.255   0.258   0.255   0.255
   17 188   257     475     183       5     107     385       0       0       0     210    0.00     0.0     0.0    0.00    0.00   0.131   0.226   0.235   0.152   0.165   0.179   0.193   0.199   0.218   0.237   0.246   0.254   0.257   0.255   0.255
   17 189   258     473     182       5     107     385       0       0       0     210    0.00     0.0     0.0    0.00    0.00   0.121   0.224   0.233   0.151   0.164   0.178   0.192   0.198   0.217   0.237   0.246   0.254   0.257   0.255   0.255
   17 190   259     492     201       5     107     409       0       0       0     210    0.00     0.0     0.0    0.58    0.00   0.308   0.295   0.293   0.172   0.162   0.176   0.191   0.197   0.216   0.236   0.245   0.253   0.257   0.255   0.254
   17 191   260     495     203       5     107     415       0       0       0     210    0.00     0.0     0.0    0.00    0.00   0.304   0.291   0.319   0.206   0.160   0.175   0.189   0.195   0.214   0.235   0.244   0.252   0.256   0.254   0.254
   17 192   261     494     202       5     107     418       0       0       0     210    0.00     0.0     0.0    0.00    0.00   0.288   0.276   0.317   0.238   0.159   0.173   0.188   0.194   0.213   0.233   0.243   0.252   0.255   0.254   0.253
   17 193   262     493     202       5     107     421       0       0       0     210    0.00     0.0     0.0    0.00    0.00   0.282   0.268   0.307   0.262   0.160   0.172   0.186   0.193   0.212   0.233   0.242   0.251   0.254   0.253   0.253
   17 194   263     488     196       5     107     421       0       0       0     210    0.00     0.0     0.0    0.00    0.00   0.236   0.248   0.273   0.257   0.194   0.170   0.184   0.191   0.210   0.231   0.241   0.249   0.253   0.252   0.252
   17 195   264     493     201       5     107     430       0       0       0     210    0.00     0.0     0.0    0.00    0.00   0.306   0.265   0.283   0.265   0.199   0.168   0.183   0.190   0.209   0.230   0.240   0.249   0.253   0.251   0.251
   17 196   265     489     198       5     107     430       0       0       0     210    0.00     0.0     0.0    0.00    0.00   0.255   0.250   0.263   0.260   0.233   0.167   0.182   0.188   0.208   0.229   0.239   0.248   0.252   0.251   0.251
   17 197   266     484     193       5     107     430       0       0       0     210    0.00     0.0     0.0    0.00    0.00   0.225   0.240   0.252   0.258   0.237   0.165   0.180   0.187   0.206   0.227   0.238   0.247   0.251   0.250   0.250
   17 198   267     483     191       5     107     430       0       0       0     210    0.00     0.0     0.0    0.00    0.00   0.206   0.238   0.251   0.257   0.237   0.165   0.180   0.186   0.206   0.227   0.238   0.246   0.251   0.250   0.250
   17 199   268     481     190       5     107     430       0       0       0     210    0.00     0.0     0.0    0.00    0.00   0.190   0.236   0.250   0.256   0.236   0.164   0.179   0.186   0.206   0.227   0.238   0.246   0.251   0.250   0.250
   17 200   269     480     188       5     107     430       0       0       0     210    0.00     0.0     0.0    0.00    0.00   0.174   0.234   0.249   0.255   0.235   0.164   0.179   0.186   0.206   0.227   0.237   0.246   0.251   0.250   0.250
   17 201   270     479     187       5     107     430       0       0       0     210    0.00     0.0     0.0    0.00    0.00   0.161   0.233   0.248   0.255   0.235   0.163   0.178   0.185   0.205   0.227   0.237   0.246   0.251   0.250   0.250
   17 202   271     478     186       5     107     430       0       0       0     210    0.00     0.0     0.0    0.00    0.00   0.149   0.231   0.247   0.254   0.235   0.163   0.178   0.185   0.205   0.227   0.237   0.246   0.251   0.250   0.250
   17 203   272     480     188       5     107     433       0       0       0     210    0.00     0.0     0.0    0.00    0.00   0.196   0.230   0.247   0.254   0.235   0.163   0.178   0.185   0.205   0.227   0.237   0.246   0.251   0.250   0.250
   17 204   273     479     187       5     107     433       0       0       0     210    0.00     0.0     0.0    0.00    0.00   0.181   0.229   0.246   0.254   0.235   0.163   0.178   0.185   0.205   0.227   0.237   0.246   0.251   0.250   0.250
   17 205   274     482     190       5     107     437       0       0       0     210    0.00     0.0     0.0    0.00    0.00   0.234   0.234   0.246   0.254   0.235   0.163   0.178   0.185   0.205   0.227   0.237   0.246   0.251   0.250   0.250
   17 206   275     500     209       6     107     459       0       0       0     210    0.00     0.0     0.0    1.05    0.00   0.309   0.316   0.321   0.276   0.249   0.162   0.178   0.185   0.205   0.226   0.237   0.246   0.250   0.249   0.249
   17 207   276     522     231      11     107     487       0       0       0     210    0.00     0.0     0.0    4.51    0.00   0.315   0.318   0.322   0.329   0.333   0.245   0.177   0.184   0.204   0.226   0.236   0.245   0.250   0.249   0.249
   17 208   277     526     235      11     107     493       0       0       0     210    0.00     0.0     0.0    0.00    0.00   0.310   0.307   0.321   0.325   0.331   0.290   0.196   0.184   0.204   0.225   0.236   0.245   0.249   0.248   0.249
   17 209   278     522     230      11     107     493       0       0       0     210    0.00     0.0     0.0    0.00    0.00   0.255   0.269   0.282   0.290   0.296   0.278   0.274   0.242   0.203   0.224   0.235   0.244   0.249   0.248   0.248
   17 210   279     515     224      11     107     493       0       0       0     210    0.00     0.0     0.0    0.00    0.00   0.222   0.248   0.260   0.271   0.277   0.271   0.273   0.274   0.211   0.223   0.234   0.243   0.247   0.247   0.247
   17 211   280     511     220      11     107     495       0       0       0     210    0.00     0.0     0.0    0.00    0.00   0.227   0.241   0.254   0.263   0.271   0.272   0.274   0.271   0.209   0.221   0.232   0.241   0.246   0.245   0.246
   17 212   281     506     214      11     107     495       0       0       0     210    0.00     0.0     0.0    0.00    0.00   0.207   0.233   0.248   0.259   0.265   0.269   0.273   0.269   0.208   0.220   0.231   0.240   0.245   0.244   0.245
   17 213   282     507     216      11     107     503       0       0       0     210    0.00     0.0     0.0    0.00    0.00   0.281   0.245   0.251   0.256   0.261   0.265   0.270   0.266   0.206   0.218   0.229   0.239   0.244   0.243   0.244
   17 214   283     501     210      11     107     503       0       0       0     210    0.00     0.0     0.0    0.00    0.00   0.233   0.237   0.246   0.257   0.261   0.262   0.267   0.263   0.204   0.217   0.228   0.237   0.242   0.242   0.242
   17 215   284     504     213      11     107     510       0       0       0     210    0.00     0.0     0.0    0.00    0.00   0.295   0.251   0.256   0.258   0.259   0.260   0.265   0.262   0.203   0.216   0.227   0.236   0.242   0.241   0.242
   17 216   285     500     209      11     107     510       0       0       0     210    0.00     0.0     0.0    0.00    0.00   0.248   0.243   0.250   0.259   0.264   0.263   0.263   0.260   0.202   0.215   0.226   0.236   0.241   0.240   0.241
   17 217   286     494     203      11     107     510       0       0       0     210    0.00     0.0     0.0    0.00    0.00   0.218   0.236   0.244   0.254   0.260   0.260   0.261   0.258   0.201   0.213   0.225   0.234   0.239   0.239   0.240
   17 218   287     493     202      11     107     510       0       0       0     210    0.00     0.0     0.0    0.00    0.00   0.201   0.235   0.243   0.253   0.260   0.260   0.260   0.258   0.201   0.213   0.225   0.234   0.239   0.239   0.240
   17 219   288     492     201      11     107     510       0       0       0     210    0.00     0.0     0.0    0.00    0.00   0.186   0.234   0.243   0.253   0.260   0.260   0.260   0.258   0.201   0.213   0.225   0.234   0.239   0.239   0.240
