*WATER BALANCE OUTPUT FILE

*DSSAT Cropping System Model Ver. 4.8.5.000 -release  NOV 27, 2025 15:48:48

*RUN   1        : 1                         WHAPS048 TUDU1701    1
 MODEL          : WHAPS048 - Wheat
 EXPERIMENT     : TUDU1701 WH
 DATA PATH      :
 TREATMENT  1   : 1                         WHAPS048
  

!     WATER BALANCE PARAMETERS
!     ========================                 --mm--

!     Soil H20 (start) on Year/day   16/298    544.80
!     Soil H20 (final) on Year/day   17/219    452.72
!     Effective Irrigation                       0.00
!     Precipitation                            510.00
!     Water added with new mulch                 0.00
!     Net lateral flow                           0.00
!     Drainage                                 107.16
!     Tiledrain flow                             0.00
!     Runoff                                    10.06
!     Mulch evaporation                          0.00
!     Soil Evaporation                         214.97
!     Transpiration                            223.90
!     Total evapotranspiration                 438.87
!     Total potential evapotranspiration       630.51

!     Initial mulch water content                0.00
!     Final mulch water content                  0.00

!     Final Balance                            45.998


*DSSAT Cropping System Model Ver. 4.8.5.000 -release  NOV 27, 2025 15:48:48

*RUN   2        : 2                         WHAPS048 TUDU1701    2
 MODEL          : WHAPS048 - Wheat
 EXPERIMENT     : TUDU1701 WH
 DATA PATH      :
 TREATMENT  2   : 2                         WHAPS048
  

!     WATER BALANCE PARAMETERS
!     ========================                 --mm--

!     Soil H20 (start) on Year/day   16/298    544.80
!     Soil H20 (final) on Year/day   17/219    452.11
!     Effective Irrigation                       0.00
!     Precipitation                            510.00
!     Water added with new mulch                 0.00
!     Net lateral flow                           0.00
!     Drainage                                 107.01
!     Tiledrain flow                             0.00
!     Runoff                                    10.06
!     Mulch evaporation                          0.00
!     Soil Evaporation                         214.17
!     Transpiration                            225.46
!     Total evapotranspiration                 439.62
!     Total potential evapotranspiration       630.29

!     Initial mulch water content                0.00
!     Final mulch water content                  0.00

!     Final Balance                            46.001


*DSSAT Cropping System Model Ver. 4.8.5.000 -release  NOV 27, 2025 15:48:48

*RUN   3        : 3                         WHAPS048 TUDU1701    3
 MODEL          : WHAPS048 - Wheat
 EXPERIMENT     : TUDU1701 WH
 DATA PATH      :
 TREATMENT  3   : 3                         WHAPS048
  

!     WATER BALANCE PARAMETERS
!     ========================                 --mm--

!     Soil H20 (start) on Year/day   16/298    544.80
!     Soil H20 (final) on Year/day   17/219    487.80
!     Effective Irrigation                       0.00
!     Precipitation                            510.00
!     Water added with new mulch                 0.00
!     Net lateral flow                           0.00
!     Drainage                                 107.38
!     Tiledrain flow                             0.00
!     Runoff                                    10.71
!     Mulch evaporation                          0.00
!     Soil Evaporation                         291.47
!     Transpiration                            111.45
!     Total evapotranspiration                 402.92
!     Total potential evapotranspiration       656.95

!     Initial mulch water content                0.00
!     Final mulch water content                  0.00

!     Final Balance                            46.000


*DSSAT Cropping System Model Ver. 4.8.5.000 -release  NOV 27, 2025 15:48:48

*RUN   4        : 4                         WHAPS048 TUDU1701    4
 MODEL          : WHAPS048 - Wheat
 EXPERIMENT     : TUDU1701 WH
 DATA PATH      :
 TREATMENT  4   : 4                         WHAPS048
  

!     WATER BALANCE PARAMETERS
!     ========================                 --mm--

!     Soil H20 (start) on Year/day   16/298    544.80
!     Soil H20 (final) on Year/day   17/219    452.25
!     Effective Irrigation                       0.00
!     Precipitation                            510.00
!     Water added with new mulch                 0.00
!     Net lateral flow                           0.00
!     Drainage                                 107.11
!     Tiledrain flow                             0.00
!     Runoff                                    10.08
!     Mulch evaporation                          0.00
!     Soil Evaporation                         214.46
!     Transpiration                            224.91
!     Total evapotranspiration                 439.37
!     Total potential evapotranspiration       630.37

!     Initial mulch water content                0.00
!     Final mulch water content                  0.00

!     Final Balance                            45.998


*DSSAT Cropping System Model Ver. 4.8.5.000 -release  NOV 27, 2025 15:48:48

*RUN   5        : 5                         WHAPS048 TUDU1701    5
 MODEL          : WHAPS048 - Wheat
 EXPERIMENT     : TUDU1701 WH
 DATA PATH      :
 TREATMENT  5   : 5                         WHAPS048
  

!     WATER BALANCE PARAMETERS
!     ========================                 --mm--

!     Soil H20 (start) on Year/day   16/298    544.80
!     Soil H20 (final) on Year/day   17/219    448.56
!     Effective Irrigation                       0.00
!     Precipitation                            510.00
!     Water added with new mulch                 0.00
!     Net lateral flow                           0.00
!     Drainage                                 101.36
!     Tiledrain flow                             0.00
!     Runoff                                     9.83
!     Mulch evaporation                          0.00
!     Soil Evaporation                         200.49
!     Transpiration                            248.55
!     Total evapotranspiration                 449.04
!     Total potential evapotranspiration       626.59

!     Initial mulch water content                0.00
!     Final mulch water content                  0.00

!     Final Balance                            46.003


*DSSAT Cropping System Model Ver. 4.8.5.000 -release  NOV 27, 2025 15:48:49

*RUN   6        : 6                         WHAPS048 TUDU1701    6
 MODEL          : WHAPS048 - Wheat
 EXPERIMENT     : TUDU1701 WH
 DATA PATH      :
 TREATMENT  6   : 6                         WHAPS048
  

!     WATER BALANCE PARAMETERS
!     ========================                 --mm--

!     Soil H20 (start) on Year/day   16/298    544.80
!     Soil H20 (final) on Year/day   17/219    452.24
!     Effective Irrigation                       0.00
!     Precipitation                            510.00
!     Water added with new mulch                 0.00
!     Net lateral flow                           0.00
!     Drainage                                 107.17
!     Tiledrain flow                             0.00
!     Runoff                                    10.07
!     Mulch evaporation                          0.00
!     Soil Evaporation                         214.82
!     Transpiration                            224.50
!     Total evapotranspiration                 439.32
!     Total potential evapotranspiration       630.48

!     Initial mulch water content                0.00
!     Final mulch water content                  0.00

!     Final Balance                            45.994


*DSSAT Cropping System Model Ver. 4.8.5.000 -release  NOV 27, 2025 15:48:49

*RUN   7        : 7                         WHAPS048 TUDU1701    7
 MODEL          : WHAPS048 - Wheat
 EXPERIMENT     : TUDU1701 WH
 DATA PATH      :
 TREATMENT  7   : 7                         WHAPS048
  

!     WATER BALANCE PARAMETERS
!     ========================                 --mm--

!     Soil H20 (start) on Year/day   16/298    544.80
!     Soil H20 (final) on Year/day   17/219    447.80
!     Effective Irrigation                       0.00
!     Precipitation                            510.00
!     Water added with new mulch                 0.00
!     Net lateral flow                           0.00
!     Drainage                                 101.23
!     Tiledrain flow                             0.00
!     Runoff                                     9.84
!     Mulch evaporation                          0.00
!     Soil Evaporation                         200.16
!     Transpiration                            249.77
!     Total evapotranspiration                 449.93
!     Total potential evapotranspiration       626.48

!     Initial mulch water content                0.00
!     Final mulch water content                  0.00

!     Final Balance                            46.000


*DSSAT Cropping System Model Ver. 4.8.5.000 -release  NOV 27, 2025 15:48:49

*RUN   8        : 8                         WHAPS048 TUDU1701    8
 MODEL          : WHAPS048 - Wheat
 EXPERIMENT     : TUDU1701 WH
 DATA PATH      :
 TREATMENT  8   : 8                         WHAPS048
  

!     WATER BALANCE PARAMETERS
!     ========================                 --mm--

!     Soil H20 (start) on Year/day   16/298    544.80
!     Soil H20 (final) on Year/day   17/219    447.03
!     Effective Irrigation                       0.00
!     Precipitation                            510.00
!     Water added with new mulch                 0.00
!     Net lateral flow                           0.00
!     Drainage                                  93.91
!     Tiledrain flow                             0.00
!     Runoff                                     9.58
!     Mulch evaporation                          0.00
!     Soil Evaporation                         190.59
!     Transpiration                            267.69
!     Total evapotranspiration                 458.28
!     Total potential evapotranspiration       623.93

!     Initial mulch water content                0.00
!     Final mulch water content                  0.00

!     Final Balance                            46.003


*DSSAT Cropping System Model Ver. 4.8.5.000 -release  NOV 27, 2025 15:48:49

*RUN   9        : 9                         WHAPS048 TUDU1701    9
 MODEL          : WHAPS048 - Wheat
 EXPERIMENT     : TUDU1701 WH
 DATA PATH      :
 TREATMENT  9   : 9                         WHAPS048
  

!     WATER BALANCE PARAMETERS
!     ========================                 --mm--

!     Soil H20 (start) on Year/day   16/298    544.80
!     Soil H20 (final) on Year/day   17/219    445.75
!     Effective Irrigation                       0.00
!     Precipitation                            510.00
!     Water added with new mulch                 0.00
!     Net lateral flow                           0.00
!     Drainage                                  93.44
!     Tiledrain flow                             0.00
!     Runoff                                     9.59
!     Mulch evaporation                          0.00
!     Soil Evaporation                         189.90
!     Transpiration                            270.11
!     Total evapotranspiration                 460.01
!     Total potential evapotranspiration       623.77

!     Initial mulch water content                0.00
!     Final mulch water content                  0.00

!     Final Balance                            46.003


*DSSAT Cropping System Model Ver. 4.8.5.000 -release  NOV 27, 2025 15:48:50

*RUN  10        : 10                        WHAPS048 TUDU1701   10
 MODEL          : WHAPS048 - Wheat
 EXPERIMENT     : TUDU1701 WH
 DATA PATH      :
 TREATMENT 10   : 10                        WHAPS048
  

!     WATER BALANCE PARAMETERS
!     ========================                 --mm--

!     Soil H20 (start) on Year/day   16/298    544.80
!     Soil H20 (final) on Year/day   17/219    487.79
!     Effective Irrigation                       0.00
!     Precipitation                            510.00
!     Water added with new mulch                 0.00
!     Net lateral flow                           0.00
!     Drainage                                 107.38
!     Tiledrain flow                             0.00
!     Runoff                                    10.71
!     Mulch evaporation                          0.00
!     Soil Evaporation                         291.47
!     Transpiration                            111.45
!     Total evapotranspiration                 402.92
!     Total potential evapotranspiration       656.95

!     Initial mulch water content                0.00
!     Final mulch water content                  0.00

!     Final Balance                            46.001


*DSSAT Cropping System Model Ver. 4.8.5.000 -release  NOV 27, 2025 15:48:50

*RUN  11        : 11                        WHAPS048 TUDU1701   11
 MODEL          : WHAPS048 - Wheat
 EXPERIMENT     : TUDU1701 WH
 DATA PATH      :
 TREATMENT 11   : 11                        WHAPS048
  

!     WATER BALANCE PARAMETERS
!     ========================                 --mm--

!     Soil H20 (start) on Year/day   16/298    544.80
!     Soil H20 (final) on Year/day   17/219    445.81
!     Effective Irrigation                       0.00
!     Precipitation                            510.00
!     Water added with new mulch                 0.00
!     Net lateral flow                           0.00
!     Drainage                                  93.50
!     Tiledrain flow                             0.00
!     Runoff                                     9.60
!     Mulch evaporation                          0.00
!     Soil Evaporation                         189.94
!     Transpiration                            269.94
!     Total evapotranspiration                 459.88
!     Total potential evapotranspiration       623.78

!     Initial mulch water content                0.00
!     Final mulch water content                  0.00

!     Final Balance                            46.006


*DSSAT Cropping System Model Ver. 4.8.5.000 -release  NOV 27, 2025 15:48:50

*RUN  12        : 12                        WHAPS048 TUDU1701   12
 MODEL          : WHAPS048 - Wheat
 EXPERIMENT     : TUDU1701 WH
 DATA PATH      :
 TREATMENT 12   : 12                        WHAPS048
  

!     WATER BALANCE PARAMETERS
!     ========================                 --mm--

!     Soil H20 (start) on Year/day   16/298    544.80
!     Soil H20 (final) on Year/day   17/219    446.74
!     Effective Irrigation                       0.00
!     Precipitation                            510.00
!     Water added with new mulch                 0.00
!     Net lateral flow                           0.00
!     Drainage                                  93.81
!     Tiledrain flow                             0.00
!     Runoff                                     9.59
!     Mulch evaporation                          0.00
!     Soil Evaporation                         190.42
!     Transpiration                            268.25
!     Total evapotranspiration                 458.66
!     Total potential evapotranspiration       623.89

!     Initial mulch water content                0.00
!     Final mulch water content                  0.00

!     Final Balance                            46.004


*DSSAT Cropping System Model Ver. 4.8.5.000 -release  NOV 27, 2025 15:48:50

*RUN  13        : 13                        WHAPS048 TUDU1701   13
 MODEL          : WHAPS048 - Wheat
 EXPERIMENT     : TUDU1701 WH
 DATA PATH      :
 TREATMENT 13   : 13                        WHAPS048
  

!     WATER BALANCE PARAMETERS
!     ========================                 --mm--

!     Soil H20 (start) on Year/day   16/298    544.80
!     Soil H20 (final) on Year/day   17/219    445.94
!     Effective Irrigation                       0.00
!     Precipitation                            510.00
!     Water added with new mulch                 0.00
!     Net lateral flow                           0.00
!     Drainage                                  93.91
!     Tiledrain flow                             0.00
!     Runoff                                     9.60
!     Mulch evaporation                          0.00
!     Soil Evaporation                         190.43
!     Transpiration                            268.91
!     Total evapotranspiration                 459.34
!     Total potential evapotranspiration       623.90

!     Initial mulch water content                0.00
!     Final mulch water content                  0.00

!     Final Balance                            46.004


*DSSAT Cropping System Model Ver. 4.8.5.000 -release  NOV 27, 2025 15:48:51

*RUN  14        : 14                        WHAPS048 TUDU1701   14
 MODEL          : WHAPS048 - Wheat
 EXPERIMENT     : TUDU1701 WH
 DATA PATH      :
 TREATMENT 14   : 14                        WHAPS048
  

!     WATER BALANCE PARAMETERS
!     ========================                 --mm--

!     Soil H20 (start) on Year/day   16/298    544.80
!     Soil H20 (final) on Year/day   17/219    450.48
!     Effective Irrigation                       0.00
!     Precipitation                            510.00
!     Water added with new mulch                 0.00
!     Net lateral flow                           0.00
!     Drainage                                 101.23
!     Tiledrain flow                             0.00
!     Runoff                                     9.76
!     Mulch evaporation                          0.00
!     Soil Evaporation                         199.71
!     Transpiration                            247.62
!     Total evapotranspiration                 447.33
!     Total potential evapotranspiration       626.29

!     Initial mulch water content                0.00
!     Final mulch water content                  0.00

!     Final Balance                            45.999


*DSSAT Cropping System Model Ver. 4.8.5.000 -release  NOV 27, 2025 15:48:51

*RUN  15        : 15                        WHAPS048 TUDU1701   15
 MODEL          : WHAPS048 - Wheat
 EXPERIMENT     : TUDU1701 WH
 DATA PATH      :
 TREATMENT 15   : 15                        WHAPS048
  

!     WATER BALANCE PARAMETERS
!     ========================                 --mm--

!     Soil H20 (start) on Year/day   16/298    544.80
!     Soil H20 (final) on Year/day   17/219    492.30
!     Effective Irrigation                       0.00
!     Precipitation                            510.00
!     Water added with new mulch                 0.00
!     Net lateral flow                           0.00
!     Drainage                                 107.38
!     Tiledrain flow                             0.00
!     Runoff                                    10.82
!     Mulch evaporation                          0.00
!     Soil Evaporation                         292.00
!     Transpiration                            106.31
!     Total evapotranspiration                 398.31
!     Total potential evapotranspiration       657.07

!     Initial mulch water content                0.00
!     Final mulch water content                  0.00

!     Final Balance                            45.997

