*SOIL-PLANT-ATMOSPHERE MODULE OUTPUT FILE

*DSSAT Cropping System Model Ver. 4.8.5.000 -release  NOV 27, 2025 15:48:13

*RUN   1        : 1                         WHAPS048 TUDU1501    1
 MODEL          : WHAPS048 - Wheat
 EXPERIMENT     : TUDU1501 WH
 DATA PATH      :
 TREATMENT  1   : 1                         WHAPS048
  
!                                                                                                                                                                                        Soil evaporation (mm/d) by soil depth (cm):
!                                                                                                                                                                                        0-5    5-15   15-20   20-30   30-40   40-50   50-60   60-70   70-90  90-210
@YEAR DOY   DAS   SRAA  TMAXA  TMINA    REFA    EOAA    EOPA    EOSA    ETAA    EPAA    ESAA    EFAA    EMAA    EOAC    ETAC    EPAC    ESAC    EFAC    EMAC    KCAA    KBSA    KEAA    ES1D    ES2D    ES3D    ES4D    ES5D    ES6D    ES7D    ES8D    ES9D  ES10D   TRWUD   TWUPD
   15 077     1  16.00  14.00   0.00 -99.000   3.046   0.000   3.046   3.046   0.000   3.046   0.000   0.000    3.05    3.05    0.00    3.05    0.00    0.00 -99.000 -99.000 -99.000   0.530   0.419   0.151   0.232   0.200   0.167   0.144   0.127   0.221   0.856   0.000   0.000
   15 078     2  17.00  13.00  -1.00 -99.000   3.150   0.000   3.150   3.150   0.000   3.150   0.000   0.000    6.20    6.20    0.00    6.20    0.00    0.00 -99.000 -99.000 -99.000   0.543   0.433   0.156   0.240   0.207   0.173   0.149   0.132   0.229   0.888   0.000   0.000
   15 079     3  17.00  13.00  -2.00 -99.000   3.108   0.000   3.108   1.034   0.000   1.034   0.000   0.000    9.30    7.23    0.00    7.23    0.00    0.00 -99.000 -99.000 -99.000   0.843   0.114   0.020   0.020   0.011   0.007   0.004   0.003   0.004   0.008   0.000   0.000
   15 080     4  13.00  14.00  -3.00 -99.000   2.381   0.000   2.381   1.049   0.000   1.049   0.000   0.000   11.68    8.28    0.00    8.28    0.00    0.00 -99.000 -99.000 -99.000   0.859   0.113   0.020   0.020   0.011   0.007   0.004   0.003   0.004   0.008   0.000   0.000
   15 081     5   5.00   5.00   2.00 -99.000   0.834   0.000   0.834   0.834   0.000   0.834   0.000   0.000   12.52    9.11    0.00    9.11    0.00    0.00 -99.000 -99.000 -99.000   0.685   0.088   0.016   0.015   0.009   0.005   0.004   0.003   0.003   0.007   0.000   0.000
   15 082     6   7.00   6.00   0.00 -99.000   1.157   0.000   1.157   0.991   0.000   0.991   0.000   0.000   13.67   10.10    0.00   10.10    0.00    0.00 -99.000 -99.000 -99.000   0.802   0.112   0.020   0.019   0.011   0.007   0.004   0.003   0.004   0.008   0.000   0.000
   15 083     7  15.00  15.00  -2.00 -99.000   2.819   0.000   2.819   0.911   0.000   0.911   0.000   0.000   16.49   11.01    0.00   11.01    0.00    0.00 -99.000 -99.000 -99.000   0.723   0.111   0.020   0.019   0.011   0.007   0.004   0.003   0.004   0.008   0.000   0.000
   15 084     8  14.00  15.00   2.00 -99.000   2.735   0.000   2.735   0.839   0.000   0.839   0.000   0.000   19.23   11.85    0.00   11.85    0.00    0.00 -99.000 -99.000 -99.000   0.652   0.110   0.020   0.019   0.011   0.007   0.004   0.003   0.004   0.008   0.000   0.000
   15 085     9   3.00   7.00   4.00 -99.000   0.524   0.000   0.524   0.524   0.000   0.524   0.000   0.000   19.75   12.38    0.00   12.38    0.00    0.00 -99.000 -99.000 -99.000   0.398   0.074   0.013   0.013   0.007   0.004   0.003   0.002   0.003   0.006   0.000   0.000
   15 086    10  10.00   9.00   3.00 -99.000   1.784   0.000   1.784   0.784   0.000   0.784   0.000   0.000   21.54   13.16    0.00   13.16    0.00    0.00 -99.000 -99.000 -99.000   0.598   0.109   0.020   0.019   0.011   0.007   0.004   0.003   0.004   0.008   0.000   0.000
   15 087    11  17.00  11.00   1.00 -99.000   3.073   0.000   3.073   0.772   0.000   0.772   0.000   0.000   24.61   13.93    0.00   13.93    0.00    0.00 -99.000 -99.000 -99.000   0.587   0.109   0.020   0.019   0.011   0.007   0.004   0.003   0.004   0.008   0.000   0.000
   15 088    12   6.00  12.00   6.00 -99.000   1.160   0.000   1.160   0.714   0.000   0.714   0.000   0.000   25.77   14.65    0.00   14.65    0.00    0.00 -99.000 -99.000 -99.000   0.529   0.108   0.020   0.019   0.011   0.007   0.004   0.003   0.004   0.008   0.000   0.000
   15 089    13   9.00   9.00   3.00 -99.000   1.601   0.000   1.601   0.961   0.000   0.961   0.000   0.000   27.37   15.61    0.00   15.61    0.00    0.00 -99.000 -99.000 -99.000   0.774   0.110   0.020   0.019   0.011   0.007   0.004   0.003   0.004   0.008   0.000   0.000
   15 090    14   8.00  13.00   1.00 -99.000   1.518   0.018   1.500   1.518   0.018   1.500   0.000   0.000   28.89   17.12    0.02   17.11    0.00    0.00 -99.000 -99.000 -99.000   0.300   0.202   0.070   0.109   0.095   0.079   0.069   0.061   0.105   0.410   0.002   0.007
   15 091    15  13.00   6.00   0.00 -99.000   2.171   0.029   2.143   2.156   0.013   2.143   0.000   0.000   31.06   19.28    0.03   19.25    0.00    0.00 -99.000 -99.000 -99.000   0.453   0.300   0.099   0.151   0.131   0.110   0.095   0.085   0.147   0.571   0.001   0.007
   15 092    16   7.00   6.00   0.00 -99.000   1.171   0.017   1.155   1.160   0.005   1.155   0.000   0.000   32.23   20.44    0.04   20.40    0.00    0.00 -99.000 -99.000 -99.000   0.253   0.166   0.056   0.080   0.069   0.058   0.050   0.044   0.077   0.301   0.000   0.007
   15 093    17  20.00   9.00  -1.00 -99.000   3.505   0.053   3.452   3.456   0.004   3.452   0.000   0.000   35.73   23.90    0.04   23.86    0.00    0.00 -99.000 -99.000 -99.000   0.699   0.501   0.171   0.257   0.212   0.176   0.152   0.135   0.234   0.915   0.000   0.007
   15 094    18   7.00   5.00   1.00 -99.000   1.158   0.020   1.138   1.154   0.016   1.138   0.000   0.000   36.89   25.05    0.06   24.99    0.00    0.00 -99.000 -99.000 -99.000   0.234   0.164   0.057   0.088   0.070   0.057   0.049   0.044   0.076   0.299   0.002   0.007
   15 095    19  13.00   6.00  -2.00 -99.000   2.124   0.039   2.085   2.088   0.003   2.085   0.000   0.000   39.02   27.14    0.06   27.08    0.00    0.00 -99.000 -99.000 -99.000   0.412   0.301   0.104   0.163   0.130   0.108   0.093   0.081   0.141   0.552   0.000   0.007
   15 096    20  10.00   6.00  -2.00 -99.000   1.622   0.031   1.591   1.599   0.008   1.591   0.000   0.000   40.64   28.74    0.07   28.67    0.00    0.00 -99.000 -99.000 -99.000   0.297   0.230   0.079   0.126   0.101   0.086   0.074   0.063   0.109   0.427   0.001   0.007
   15 097    21  20.00   8.00  -2.00 -99.000   3.357   0.068   3.289   3.296   0.007   3.289   0.000   0.000   44.00   32.03    0.07   31.96    0.00    0.00 -99.000 -99.000 -99.000   0.600   0.475   0.164   0.261   0.210   0.178   0.153   0.130   0.227   0.890   0.001   0.007
   15 098    22  19.00  13.00   0.00 -99.000   3.546   0.080   3.466   1.109   0.019   1.090   0.000   0.000   47.54   33.14    0.09   33.05    0.00    0.00 -99.000 -99.000 -99.000   0.891   0.121   0.020   0.021   0.011   0.007   0.004   0.003   0.004   0.008   0.002   0.007
   15 099    23  20.00  18.00   2.00 -99.000   4.100   0.108   3.992   1.048   0.045   1.003   0.000   0.000   51.64   34.19    0.14   34.05    0.00    0.00 -99.000 -99.000 -99.000   0.805   0.120   0.020   0.021   0.011   0.007   0.004   0.003   0.004   0.008   0.005   0.007
   15 100    24  20.00  21.00   1.00 -99.000   4.223   0.134   4.088   1.020   0.097   0.923   0.000   0.000   55.86   35.21    0.24   34.98    0.00    0.00 -99.000 -99.000 -99.000   0.725   0.119   0.020   0.021   0.011   0.007   0.004   0.003   0.004   0.008   0.010   0.007
   15 101    25  13.00  18.00   5.00 -99.000   2.720   0.101   2.619   0.978   0.131   0.847   0.000   0.000   58.58   36.19    0.37   35.82    0.00    0.00 -99.000 -99.000 -99.000   0.651   0.118   0.020   0.021   0.011   0.007   0.004   0.003   0.004   0.008   0.013   0.007
   15 102    26  15.00  18.00   5.00 -99.000   3.126   0.134   2.992   0.870   0.092   0.777   0.000   0.000   61.71   37.06    0.46   36.60    0.00    0.00 -99.000 -99.000 -99.000   0.582   0.117   0.020   0.021   0.011   0.007   0.004   0.003   0.004   0.008   0.009   0.004
   15 103    27  15.00  18.00   5.00 -99.000   3.114   0.156   2.958   0.834   0.117   0.717   0.000   0.000   64.83   37.89    0.58   37.32    0.00    0.00 -99.000 -99.000 -99.000   0.522   0.116   0.020   0.021   0.011   0.007   0.004   0.003   0.004   0.008   0.012   0.002
   15 104    28  20.00  18.00   5.00 -99.000   4.137   0.242   3.895   0.798   0.137   0.661   0.000   0.000   68.96   38.69    0.71   37.98    0.00    0.00 -99.000 -99.000 -99.000   0.468   0.115   0.020   0.021   0.011   0.007   0.004   0.003   0.004   0.008   0.014   0.002
   15 105    29  23.00  23.00   5.00 -99.000   5.079   0.356   4.724   0.802   0.191   0.611   0.000   0.000   74.04   39.49    0.90   38.59    0.00    0.00 -99.000 -99.000 -99.000   0.419   0.114   0.020   0.021   0.011   0.007   0.004   0.003   0.004   0.008   0.019   0.002
   15 106    30  14.00  21.00   9.00 -99.000   3.106   0.264   2.843   0.970   0.404   0.566   0.000   0.000   77.15   40.46    1.31   39.16    0.00    0.00 -99.000 -99.000 -99.000   0.376   0.113   0.020   0.021   0.011   0.007   0.004   0.003   0.004   0.008   0.040   0.002
   15 107    31   8.00  16.00   5.00 -99.000   1.589   0.151   1.438   1.636   0.197   1.438   0.000   0.000   78.74   42.10    1.50   40.59    0.00    0.00 -99.000 -99.000 -99.000   0.233   0.225   0.079   0.117   0.093   0.078   0.067   0.057   0.099   0.390   0.020   0.002
   15 108    32  18.00  10.00   0.00 -99.000   3.201   0.327   2.875   2.972   0.098   2.875   0.000   0.000   81.94   45.07    1.60   43.47    0.00    0.00 -99.000 -99.000 -99.000   0.585   0.438   0.150   0.220   0.175   0.147   0.127   0.111   0.192   0.729   0.010   0.008
   15 109    33  24.00  12.00   0.00 -99.000   4.366   0.486   3.881   4.001   0.121   3.881   0.000   0.000   86.30   49.07    1.72   47.35    0.00    0.00 -99.000 -99.000 -99.000   0.728   0.571   0.197   0.304   0.242   0.204   0.180   0.160   0.277   1.017   0.012   0.008
   15 110    34  24.00  16.00   0.00 -99.000   4.619   0.572   4.048   4.270   0.222   4.048   0.000   0.000   90.92   53.34    1.95   51.40    0.00    0.00 -99.000 -99.000 -99.000   0.718   0.588   0.203   0.321   0.257   0.217   0.192   0.171   0.294   1.087   0.022   0.008
   15 111    35  25.00  19.00   1.00 -99.000   5.051   0.732   4.320   1.462   0.430   1.031   0.000   0.000   95.97   54.80    2.38   52.43    0.00    0.00 -99.000 -99.000 -99.000   0.832   0.120   0.020   0.021   0.011   0.007   0.005   0.003   0.004   0.008   0.043   0.008
   15 112    36  24.00  19.00   2.00 -99.000   4.853   0.845   4.009   1.633   0.704   0.930   0.000   0.000  100.83   56.44    3.08   53.36    0.00    0.00 -99.000 -99.000 -99.000   0.733   0.118   0.020   0.021   0.011   0.007   0.005   0.003   0.004   0.008   0.070   0.009
   15 113    37  15.00  12.00   0.00 -99.000   2.640   0.545   2.096   1.630   0.802   0.828   0.000   0.000  103.47   58.07    3.88   54.19    0.00    0.00 -99.000 -99.000 -99.000   0.634   0.116   0.020   0.021   0.011   0.007   0.005   0.003   0.004   0.008   0.080   0.009
   15 114    38  24.00  18.00   0.00 -99.000   4.620   1.012   3.609   1.045   0.308   0.737   0.000   0.000  108.09   59.11    4.19   54.92    0.00    0.00 -99.000 -99.000 -99.000   0.546   0.113   0.020   0.020   0.011   0.007   0.005   0.003   0.004   0.008   0.031   0.005
   15 115    39  12.00  19.00   3.00 -99.000   2.399   0.587   1.813   1.683   0.960   0.723   0.000   0.000  110.49   60.80    5.15   55.65    0.00    0.00 -99.000 -99.000 -99.000   0.533   0.112   0.020   0.020   0.011   0.007   0.005   0.003   0.004   0.008   0.096   0.004
   15 116    40  19.00  20.00  10.00 -99.000   4.094   1.114   2.982   1.451   0.708   0.743   0.000   0.000  114.58   62.25    5.86   56.39    0.00    0.00 -99.000 -99.000 -99.000   0.557   0.108   0.020   0.020   0.011   0.007   0.005   0.003   0.004   0.008   0.071   0.005
   15 117    41  21.00  22.00   6.00 -99.000   4.459   1.390   3.071   1.768   0.830   0.938   0.000   0.000  119.04   64.02    6.69   57.33    0.00    0.00 -99.000 -99.000 -99.000   0.754   0.107   0.020   0.020   0.011   0.007   0.005   0.003   0.004   0.008   0.083   0.006
   15 118    42   8.00  12.00   4.00 -99.000   1.445   0.508   0.938   2.502   1.564   0.938   0.000   0.000  120.48   66.52    8.25   58.27    0.00    0.00 -99.000 -99.000 -99.000   0.191   0.123   0.044   0.071   0.058   0.050   0.044   0.039   0.068   0.250   0.156   0.012
   15 119    43  22.00  13.00   0.00 -99.000   3.882   1.442   2.443   2.721   0.279   2.443   0.000   0.000  124.37   69.24    8.53   60.71    0.00    0.00 -99.000 -99.000 -99.000   0.487   0.339   0.112   0.183   0.151   0.129   0.114   0.102   0.176   0.650   0.028   0.013
   15 120    44  16.00  15.00   5.00 -99.000   3.047   1.173   1.876   2.705   0.829   1.876   0.000   0.000  127.41   71.94    9.36   62.59    0.00    0.00 -99.000 -99.000 -99.000   0.362   0.268   0.085   0.141   0.116   0.099   0.088   0.078   0.136   0.503   0.083   0.014
   15 121    45   8.00   9.00   7.00 -99.000   1.408   0.582   0.827   1.563   0.736   0.827   0.000   0.000  128.82   73.51   10.09   63.41    0.00    0.00 -99.000 -99.000 -99.000   0.170   0.129   0.043   0.065   0.050   0.042   0.036   0.032   0.055   0.205   0.074   0.014
   15 122    46  12.00  13.00   7.00 -99.000   2.260   0.976   1.285   1.361   0.075   1.285   0.000   0.000  131.08   74.87   10.17   64.70    0.00    0.00 -99.000 -99.000 -99.000   0.262   0.201   0.076   0.109   0.081   0.065   0.056   0.048   0.082   0.306   0.008   0.015
   15 123    47   9.00  16.00  10.00 -99.000   1.808   0.830   0.980   1.378   0.398   0.980   0.000   0.000  132.89   76.24   10.57   65.68    0.00    0.00 -99.000 -99.000 -99.000   0.205   0.154   0.056   0.083   0.063   0.051   0.043   0.037   0.062   0.226   0.040   0.016
   15 124    48  16.00  20.00  14.00 -99.000   3.507   1.714   1.795   2.250   0.456   1.795   0.000   0.000  136.40   78.49   11.02   67.47    0.00    0.00 -99.000 -99.000 -99.000   0.355   0.270   0.094   0.146   0.114   0.094   0.081   0.071   0.120   0.449   0.046   0.017
   15 125    49  12.00  25.00  12.00 -99.000   2.719   1.437   1.285   2.187   0.903   1.285   0.000   0.000  139.12   80.68   11.92   68.76    0.00    0.00 -99.000 -99.000 -99.000   0.253   0.187   0.068   0.103   0.081   0.068   0.058   0.051   0.086   0.330   0.090   0.018
   15 126    50  14.00  14.00   8.00 -99.000   2.624   1.480   1.146   3.026   1.880   1.146   0.000   0.000  141.74   83.71   13.80   69.90    0.00    0.00 -99.000 -99.000 -99.000   0.235   0.174   0.061   0.095   0.073   0.059   0.051   0.044   0.074   0.280   0.188   0.019
   15 127    51  22.00  18.00   8.00 -99.000   4.362   2.546   1.820   2.453   0.633   1.820   0.000   0.000  146.10   86.16   14.44   71.72    0.00    0.00 -99.000 -99.000 -99.000   0.349   0.273   0.094   0.150   0.116   0.095   0.082   0.072   0.122   0.467   0.063   0.020
   15 128    52  23.00  22.00   8.00 -99.000   4.777   2.889   1.892   3.641   1.749   1.892   0.000   0.000  150.88   89.80   16.19   73.61    0.00    0.00 -99.000 -99.000 -99.000   0.344   0.274   0.095   0.152   0.120   0.100   0.087   0.077   0.132   0.511   0.175   0.021
   15 129    53  13.00  17.00  10.00 -99.000   2.552   1.603   0.952   3.957   3.005   0.952   0.000   0.000  153.43   93.76   19.19   74.57    0.00    0.00 -99.000 -99.000 -99.000   0.178   0.135   0.047   0.075   0.060   0.050   0.044   0.039   0.067   0.258   0.301   0.023
   15 130    54  22.00  19.00   7.00 -99.000   4.312   2.791   1.525   2.492   0.968   1.525   0.000   0.000  157.74   96.25   20.16   76.09    0.00    0.00 -99.000 -99.000 -99.000   0.280   0.213   0.075   0.118   0.095   0.080   0.071   0.063   0.109   0.420   0.097   0.025
   15 131    55  23.00  21.00   5.00 -99.000   4.528   3.011   1.521   3.886   2.365   1.521   0.000   0.000  162.27  100.14   22.52   77.61    0.00    0.00 -99.000 -99.000 -99.000   0.269   0.211   0.074   0.119   0.095   0.081   0.072   0.064   0.110   0.426   0.236   0.026
   15 132    56  23.00  27.00   8.00 -99.000   5.005   3.412   1.597   5.002   3.405   1.597   0.000   0.000  167.28  105.14   25.93   79.21    0.00    0.00 -99.000 -99.000 -99.000   0.264   0.220   0.078   0.125   0.101   0.086   0.076   0.069   0.119   0.459   0.340   0.028
   15 133    57  20.00  22.00  13.00 -99.000   4.240   2.982   1.262   6.403   5.141   1.262   0.000   0.000  171.52  111.54   31.07   80.47    0.00    0.00 -99.000 -99.000 -99.000   0.229   0.172   0.059   0.096   0.077   0.066   0.059   0.053   0.093   0.358   0.514   0.029
   15 134    58  18.00  18.00  11.00 -99.000   3.558   2.572   0.990   3.184   2.194   0.990   0.000   0.000  175.08  114.73   33.26   81.46    0.00    0.00 -99.000 -99.000 -99.000   0.188   0.133   0.044   0.072   0.059   0.051   0.046   0.042   0.073   0.282   0.219   0.031
   15 135    59   8.00  15.00   7.00 -99.000   1.454   1.072   0.383   1.690   1.306   0.383   0.000   0.000  176.53  116.42   34.57   81.84    0.00    0.00 -99.000 -99.000 -99.000   0.317   0.040   0.006   0.007   0.004   0.002   0.002   0.001   0.002   0.003   0.131   0.033
   15 136    60  24.00  19.00   5.00 -99.000   4.522   3.381   1.146   1.689   0.682   1.007   0.000   0.000  181.05  118.10   35.25   82.85    0.00    0.00 -99.000 -99.000 -99.000   0.825   0.109   0.017   0.019   0.010   0.006   0.004   0.003   0.004   0.009   0.068   0.034
   15 137    61  17.00  17.00  10.00 -99.000   3.254   2.469   0.789   3.504   2.715   0.789   0.000   0.000  184.31  121.61   37.97   83.64    0.00    0.00 -99.000 -99.000 -99.000   0.642   0.088   0.014   0.015   0.008   0.005   0.004   0.003   0.004   0.007   0.272   0.035
   15 138    62  26.00  23.00   7.00 -99.000   5.242   4.037   1.210   2.066   1.168   0.898   0.000   0.000  189.55  123.67   39.14   84.54    0.00    0.00 -99.000 -99.000 -99.000   0.724   0.104   0.017   0.018   0.010   0.006   0.004   0.003   0.004   0.009   0.117   0.036
   15 139    63  10.00  18.00   9.00 -99.000   1.913   1.497   0.418   4.338   3.920   0.418   0.000   0.000  191.46  128.01   43.06   84.96    0.00    0.00 -99.000 -99.000 -99.000   0.081   0.059   0.019   0.029   0.024   0.021   0.019   0.017   0.031   0.119   0.392   0.038
   15 140    64   8.00  10.00   6.00 -99.000   1.323   1.054   0.271   1.195   0.925   0.271   0.000   0.000  192.78  129.21   43.98   85.23    0.00    0.00 -99.000 -99.000 -99.000   0.062   0.043   0.014   0.019   0.014   0.012   0.011   0.010   0.018   0.069   0.092   0.039
   15 141    65  12.00  12.00   7.00 -99.000   2.067   1.664   0.405   0.613   0.207   0.405   0.000   0.000  194.85  129.82   44.19   85.63    0.00    0.00 -99.000 -99.000 -99.000   0.084   0.064   0.024   0.033   0.024   0.018   0.016   0.015   0.026   0.103   0.021   0.040
   15 142    66  22.00  15.00   4.00 -99.000   3.836   3.130   0.710   1.099   0.388   0.710   0.000   0.000  198.69  130.92   44.58   86.34    0.00    0.00 -99.000 -99.000 -99.000   0.137   0.105   0.038   0.057   0.044   0.035   0.030   0.028   0.049   0.189   0.039   0.040
   15 143    67  15.00  16.00   6.00 -99.000   2.697   2.241   0.460   1.724   1.264   0.460   0.000   0.000  201.38  132.64   45.84   86.80    0.00    0.00 -99.000 -99.000 -99.000   0.090   0.067   0.024   0.036   0.028   0.023   0.020   0.018   0.031   0.121   0.126   0.040
   15 144    68  12.00  15.00   8.00 -99.000   2.166   1.820   0.348   1.260   0.912   0.348   0.000   0.000  203.55  133.90   46.75   87.15    0.00    0.00 -99.000 -99.000 -99.000   0.068   0.049   0.018   0.027   0.022   0.018   0.016   0.014   0.024   0.092   0.091   0.041
   15 145    69  15.00  19.00   9.00 -99.000   2.886   2.447   0.443   0.972   0.529   0.443   0.000   0.000  206.43  134.88   47.28   87.59    0.00    0.00 -99.000 -99.000 -99.000   0.082   0.062   0.022   0.035   0.028   0.023   0.020   0.018   0.031   0.121   0.053   0.041
   15 146    70  13.00  15.00   8.00 -99.000   2.337   2.001   0.339   1.377   1.038   0.339   0.000   0.000  208.77  136.25   48.32   87.93    0.00    0.00 -99.000 -99.000 -99.000   0.062   0.048   0.017   0.026   0.021   0.018   0.016   0.014   0.024   0.094   0.104   0.042
   15 147    71  17.00  14.00   4.00 -99.000   2.889   2.492   0.402   0.913   0.511   0.402   0.000   0.000  211.66  137.17   48.83   88.34    0.00    0.00 -99.000 -99.000 -99.000   0.072   0.056   0.020   0.031   0.025   0.021   0.019   0.017   0.029   0.112   0.051   0.042
   15 148    72  27.00  20.00   3.00 -99.000   4.961   4.301   0.666   1.346   0.680   0.666   0.000   0.000  216.62  138.51   49.51   89.00    0.00    0.00 -99.000 -99.000 -99.000   0.117   0.093   0.032   0.052   0.042   0.036   0.031   0.028   0.048   0.187   0.068   0.042
   15 149    73  21.00  23.00   7.00 -99.000   4.164   3.640   0.528   2.462   1.933   0.528   0.000   0.000  220.79  140.97   51.44   89.53    0.00    0.00 -99.000 -99.000 -99.000   0.431   0.058   0.010   0.010   0.005   0.003   0.002   0.002   0.002   0.004   0.193   0.043
   15 150    74  17.00  18.00  11.00 -99.000   3.263   2.869   0.398   2.147   1.750   0.398   0.000   0.000  224.05  143.12   53.19   89.93    0.00    0.00 -99.000 -99.000 -99.000   0.321   0.046   0.008   0.008   0.004   0.003   0.002   0.001   0.002   0.003   0.175   0.043
   15 151    75  22.00  21.00   9.00 -99.000   4.314   3.809   0.510   1.114   0.603   0.510   0.000   0.000  228.36  144.23   53.80   90.44    0.00    0.00 -99.000 -99.000 -99.000   0.407   0.061   0.011   0.011   0.006   0.004   0.002   0.002   0.002   0.005   0.060   0.044
   15 152    76  21.00  26.00  11.00 -99.000   4.460   3.957   0.508   1.765   1.257   0.508   0.000   0.000  232.82  146.00   55.05   90.95    0.00    0.00 -99.000 -99.000 -99.000   0.400   0.064   0.011   0.011   0.006   0.004   0.003   0.002   0.002   0.005   0.126   0.044
   15 153    77  23.00  25.00  13.00 -99.000   4.901   4.366   0.540   2.295   1.755   0.540   0.000   0.000  237.72  148.29   56.81   91.49    0.00    0.00 -99.000 -99.000 -99.000   0.420   0.071   0.012   0.013   0.007   0.004   0.003   0.002   0.003   0.006   0.176   0.045
   15 154    78  27.00  28.00  12.00 -99.000   5.910   5.296   0.621   2.636   2.016   0.621   0.000   0.000  243.63  150.93   58.82   92.11    0.00    0.00 -99.000 -99.000 -99.000   0.474   0.086   0.015   0.016   0.008   0.005   0.004   0.003   0.003   0.007   0.202   0.045
   15 155    79  28.00  26.00  12.00 -99.000   5.976   5.393   0.590   4.251   3.661   0.590   0.000   0.000  249.61  155.18   62.49   92.70    0.00    0.00 -99.000 -99.000 -99.000   0.441   0.087   0.015   0.016   0.008   0.005   0.004   0.003   0.004   0.007   0.366   0.039
   15 156    80  28.00  28.00  15.00 -99.000   6.266   5.645   0.627   4.056   3.429   0.627   0.000   0.000  255.88  159.24   65.91   93.32    0.00    0.00 -99.000 -99.000 -99.000   0.457   0.098   0.017   0.018   0.010   0.006   0.004   0.003   0.004   0.008   0.343   0.037
   15 157    81  25.00  30.00  13.00 -99.000   5.636   5.079   0.563   3.911   3.348   0.563   0.000   0.000  261.51  163.15   69.26   93.89    0.00    0.00 -99.000 -99.000 -99.000   0.430   0.076   0.013   0.014   0.008   0.005   0.003   0.002   0.003   0.007   0.335   0.037
   15 158    82  24.00  26.00  16.00 -99.000   5.292   4.768   0.529   4.353   3.823   0.529   0.000   0.000  266.80  167.50   73.09   94.42    0.00    0.00 -99.000 -99.000 -99.000   0.421   0.062   0.011   0.012   0.006   0.004   0.003   0.002   0.003   0.006   0.382   0.048
   15 159    83   8.00  20.00  12.00 -99.000   1.583   1.431   0.154   3.009   2.855   0.154   0.000   0.000  268.39  170.51   75.94   94.57    0.00    0.00 -99.000 -99.000 -99.000   0.030   0.021   0.007   0.011   0.009   0.008   0.007   0.006   0.011   0.046   0.286   0.042
   15 160    84   6.00  13.00  11.00 -99.000   1.071   0.969   0.103   1.097   0.993   0.103   0.000   0.000  269.46  171.61   76.93   94.67    0.00    0.00 -99.000 -99.000 -99.000   0.022   0.015   0.005   0.007   0.005   0.005   0.004   0.004   0.007   0.029   0.099   0.050
   15 161    85   9.00  18.00  11.00 -99.000   1.722   1.560   0.163   0.344   0.181   0.163   0.000   0.000  271.18  171.95   77.11   94.84    0.00    0.00 -99.000 -99.000 -99.000   0.033   0.024   0.008   0.011   0.009   0.008   0.007   0.006   0.012   0.047   0.018   0.050
   15 162    86  16.00  22.00  14.00 -99.000   3.306   3.009   0.301   1.456   1.155   0.301   0.000   0.000  274.49  173.41   78.27   95.14    0.00    0.00 -99.000 -99.000 -99.000   0.058   0.044   0.015   0.021   0.016   0.014   0.013   0.012   0.022   0.087   0.115   0.051
   15 163    87  28.00  28.00  12.00 -99.000   6.124   5.571   0.560   2.888   2.328   0.560   0.000   0.000  280.61  176.29   80.60   95.70    0.00    0.00 -99.000 -99.000 -99.000   0.106   0.081   0.028   0.040   0.030   0.026   0.024   0.022   0.040   0.162   0.233   0.051
   15 164    88  20.00  25.00  14.00 -99.000   4.293   3.870   0.427   7.023   6.596   0.427   0.000   0.000  284.90  183.32   87.19   96.12    0.00    0.00 -99.000 -99.000 -99.000   0.091   0.061   0.021   0.030   0.022   0.019   0.017   0.016   0.030   0.120   0.660   0.052
   15 165    89  23.00  24.00  15.00 -99.000   4.925   4.430   0.500   4.435   3.935   0.500   0.000   0.000  289.83  187.75   91.13   96.62    0.00    0.00 -99.000 -99.000 -99.000   0.115   0.078   0.027   0.036   0.024   0.020   0.019   0.017   0.033   0.132   0.393   0.053
   15 166    90   9.00  16.00  13.00 -99.000   1.710   1.535   0.177   3.700   3.522   0.177   0.000   0.000  291.54  191.45   94.65   96.80    0.00    0.00 -99.000 -99.000 -99.000   0.039   0.030   0.010   0.015   0.010   0.007   0.006   0.006   0.011   0.044   0.352   0.054
   15 167    91  18.00  19.00  11.00 -99.000   3.499   3.135   0.368   0.865   0.497   0.368   0.000   0.000  295.04  192.32   95.15   97.17    0.00    0.00 -99.000 -99.000 -99.000   0.073   0.056   0.019   0.031   0.023   0.018   0.015   0.013   0.024   0.096   0.050   0.055
   15 168    92  21.00  19.00  10.00 -99.000   4.044   3.616   0.432   2.578   2.146   0.432   0.000   0.000  299.08  194.90   97.29   97.60    0.00    0.00 -99.000 -99.000 -99.000   0.081   0.063   0.022   0.035   0.027   0.022   0.020   0.017   0.030   0.116   0.215   0.055
   15 169    93   8.00  17.00   9.00 -99.000   1.485   1.325   0.161   2.755   2.593   0.161   0.000   0.000  300.57  197.65   99.89   97.76    0.00    0.00 -99.000 -99.000 -99.000   0.033   0.024   0.008   0.013   0.010   0.008   0.007   0.006   0.011   0.042   0.259   0.056
   15 170    94  15.00  15.00  10.00 -99.000   2.736   2.439   0.301   1.426   1.125   0.301   0.000   0.000  303.30  199.08  101.01   98.07    0.00    0.00 -99.000 -99.000 -99.000   0.061   0.044   0.015   0.023   0.018   0.015   0.013   0.012   0.020   0.080   0.112   0.056
   15 171    95  14.00  15.00   9.00 -99.000   2.528   2.249   0.282   1.264   0.982   0.282   0.000   0.000  305.83  200.34  101.99   98.35    0.00    0.00 -99.000 -99.000 -99.000   0.053   0.040   0.014   0.022   0.017   0.015   0.013   0.011   0.020   0.077   0.098   0.057
   15 172    96  14.00  17.00   9.00 -99.000   2.600   2.310   0.294   1.386   1.093   0.294   0.000   0.000  308.43  201.73  103.09   98.64    0.00    0.00 -99.000 -99.000 -99.000   0.054   0.041   0.014   0.023   0.018   0.015   0.014   0.012   0.021   0.081   0.109   0.057
   15 173    97  14.00  20.00  11.00 -99.000   2.758   2.446   0.316   1.907   1.591   0.316   0.000   0.000  311.19  203.63  104.68   98.96    0.00    0.00 -99.000 -99.000 -99.000   0.065   0.045   0.016   0.024   0.019   0.016   0.014   0.012   0.021   0.084   0.159   0.057
   15 174    98  19.00  16.00   9.00 -99.000   3.487   3.086   0.405   2.517   2.111   0.405   0.000   0.000  314.67  206.15  106.79   99.36    0.00    0.00 -99.000 -99.000 -99.000   0.088   0.059   0.021   0.030   0.024   0.020   0.017   0.015   0.027   0.104   0.211   0.058
   15 175    99  22.00  19.00   8.00 -99.000   4.170   3.685   0.491   2.105   1.614   0.491   0.000   0.000  318.84  208.25  108.40   99.85    0.00    0.00 -99.000 -99.000 -99.000   0.096   0.070   0.025   0.038   0.030   0.025   0.022   0.020   0.034   0.132   0.161   0.058
   15 176   100  22.00  21.00   6.00 -99.000   4.206   3.710   0.502   3.553   3.051   0.502   0.000   0.000  323.05  211.81  111.45  100.35    0.00    0.00 -99.000 -99.000 -99.000   0.093   0.071   0.025   0.039   0.031   0.026   0.023   0.021   0.035   0.138   0.305   0.059
   15 177   101  24.00  24.00   8.00 -99.000   4.858   4.277   0.587   4.814   4.227   0.587   0.000   0.000  327.91  216.62  115.68  100.94    0.00    0.00 -99.000 -99.000 -99.000   0.105   0.082   0.029   0.046   0.036   0.031   0.027   0.024   0.042   0.165   0.423   0.060
   15 178   102  13.00  22.00  13.00 -99.000   2.677   2.351   0.329   5.762   5.433   0.329   0.000   0.000  330.59  222.38  121.11  101.27    0.00    0.00 -99.000 -99.000 -99.000   0.268   0.037   0.006   0.006   0.003   0.002   0.001   0.001   0.001   0.003   0.543   0.060
   15 179   103  24.00  22.00  13.00 -99.000   4.941   4.329   0.618   2.833   2.216   0.618   0.000   0.000  335.53  225.22  123.33  101.89    0.00    0.00 -99.000 -99.000 -99.000   0.495   0.073   0.013   0.013   0.007   0.004   0.003   0.002   0.003   0.006   0.222   0.061
   15 180   104  23.00  25.00  12.00 -99.000   4.873   4.269   0.609   3.684   3.075   0.609   0.000   0.000  340.40  228.90  126.40  102.50    0.00    0.00 -99.000 -99.000 -99.000   0.480   0.076   0.013   0.014   0.007   0.004   0.003   0.002   0.003   0.006   0.308   0.061
   15 181   105  27.00  29.00  12.00 -99.000   6.003   5.237   0.772   5.533   4.762   0.772   0.000   0.000  346.40  234.43  131.17  103.27    0.00    0.00 -99.000 -99.000 -99.000   0.597   0.103   0.018   0.019   0.010   0.006   0.004   0.003   0.004   0.008   0.476   0.061
   15 182   106  28.00  28.00  13.00 -99.000   6.201   5.387   0.820   7.844   7.153   0.690   0.000   0.000  352.60  242.28  138.32  103.96    0.00    0.00 -99.000 -99.000 -99.000   0.518   0.100   0.017   0.018   0.010   0.006   0.004   0.003   0.004   0.008   0.715   0.052
   15 183   107  29.00  29.00  14.00 -99.000   6.550   5.662   0.894   7.133   6.536   0.597   0.000   0.000  359.15  249.41  144.85  104.56    0.00    0.00 -99.000 -99.000 -99.000   0.435   0.094   0.016   0.017   0.009   0.006   0.004   0.003   0.004   0.008   0.654   0.050
   15 184   108  23.00  31.00  14.00 -99.000   5.316   4.572   0.748   7.277   6.746   0.531   0.000   0.000  364.47  256.69  151.60  105.09    0.00    0.00 -99.000 -99.000 -99.000   0.377   0.089   0.015   0.016   0.009   0.006   0.004   0.003   0.004   0.008   0.675   0.050
   15 185   109  27.00  32.00  16.00 -99.000   6.408   5.481   0.932   6.966   6.485   0.481   0.000   0.000  370.88  263.65  158.09  105.57    0.00    0.00 -99.000 -99.000 -99.000   0.335   0.084   0.014   0.016   0.008   0.005   0.004   0.003   0.004   0.008   0.649   0.050
   15 186   110  27.00  33.00  17.00 -99.000   6.528   5.552   0.982   7.153   6.709   0.444   0.000   0.000  377.41  270.81  164.80  106.01    0.00    0.00 -99.000 -99.000 -99.000   0.305   0.079   0.013   0.015   0.008   0.005   0.004   0.003   0.004   0.008   0.671   0.045
   15 187   111  23.00  28.00  17.00 -99.000   5.264   4.449   0.820   6.934   6.525   0.409   0.000   0.000  382.67  277.74  171.32  106.42    0.00    0.00 -99.000 -99.000 -99.000   0.277   0.075   0.012   0.014   0.008   0.005   0.004   0.003   0.004   0.008   0.652   0.035
   15 188   112  26.00  33.00  16.00 -99.000   6.249   5.245   1.009   4.900   4.343   0.557   0.000   0.000  388.92  282.64  175.66  106.98    0.00    0.00 -99.000 -99.000 -99.000   0.432   0.071   0.011   0.013   0.007   0.005   0.003   0.003   0.004   0.008   0.434   0.027
   15 189   113  16.00  21.00  13.00 -99.000   3.271   2.728   0.547   6.591   6.044   0.547   0.000   0.000  392.19  289.23  181.71  107.52    0.00    0.00 -99.000 -99.000 -99.000   0.473   0.042   0.006   0.008   0.004   0.003   0.002   0.001   0.002   0.005   0.604   0.029
   15 190   114  17.00  19.00   8.00 -99.000   3.247   2.708   0.543   2.508   1.965   0.543   0.000   0.000  395.44  291.74  183.67  108.07    0.00    0.00 -99.000 -99.000 -99.000   0.123   0.057   0.016   0.032   0.026   0.023   0.022   0.021   0.041   0.183   0.197   0.030
   15 191   115  29.00  22.00   7.00 -99.000   5.714   4.763   0.957   3.268   2.311   0.957   0.000   0.000  401.15  295.01  185.98  109.02    0.00    0.00 -99.000 -99.000 -99.000   0.841   0.068   0.009   0.012   0.006   0.004   0.003   0.002   0.004   0.008   0.231   0.029
   15 192   116  26.00  28.00   8.00 -99.000   5.574   4.643   0.937   5.627   4.758   0.869   0.000   0.000  406.73  300.63  190.74  109.89    0.00    0.00 -99.000 -99.000 -99.000   0.751   0.069   0.009   0.012   0.006   0.004   0.003   0.002   0.004   0.008   0.476   0.027
   15 193   117  24.00  27.00  13.00 -99.000   5.287   4.399   0.893   7.535   6.817   0.717   0.000   0.000  412.01  308.17  197.56  110.61    0.00    0.00 -99.000 -99.000 -99.000   0.603   0.066   0.009   0.012   0.006   0.004   0.003   0.002   0.004   0.008   0.682   0.025
   15 194   118  10.00  21.00  15.00 -99.000   2.079   1.727   0.354   5.174   4.820   0.354   0.000   0.000  414.09  313.34  202.38  110.96    0.00    0.00 -99.000 -99.000 -99.000   0.291   0.036   0.005   0.006   0.003   0.002   0.002   0.001   0.002   0.005   0.482   0.013
   15 195   119  16.00  25.00  15.00 -99.000   3.496   2.897   0.602   1.722   1.121   0.601   0.000   0.000  417.59  315.07  203.50  111.57    0.00    0.00 -99.000 -99.000 -99.000   0.496   0.061   0.009   0.011   0.006   0.004   0.003   0.002   0.003   0.008   0.112   0.013
   15 196   120  23.00  27.00  16.00 -99.000   5.185   4.284   0.905   3.237   2.691   0.546   0.000   0.000  422.77  318.30  206.19  112.11    0.00    0.00 -99.000 -99.000 -99.000   0.441   0.060   0.009   0.011   0.006   0.004   0.003   0.002   0.003   0.008   0.269   0.012
   15 197   121  26.00  31.00  13.00 -99.000   5.998   4.937   1.066   4.350   3.863   0.487   0.000   0.000  428.77  322.65  210.05  112.60    0.00    0.00 -99.000 -99.000 -99.000   0.384   0.058   0.008   0.011   0.006   0.004   0.003   0.002   0.003   0.008   0.386   0.011
   15 198   122  23.00  33.00  15.00 -99.000   5.508   4.512   1.001   6.969   6.531   0.438   0.000   0.000  434.28  329.62  216.58  113.04    0.00    0.00 -99.000 -99.000 -99.000   0.338   0.057   0.008   0.010   0.006   0.004   0.003   0.002   0.003   0.008   0.653   0.011
   15 199   123  16.00  29.00  14.00 -99.000   3.638   2.963   0.678   6.292   5.889   0.404   0.000   0.000  437.92  335.91  222.47  113.44    0.00    0.00 -99.000 -99.000 -99.000   0.308   0.054   0.008   0.010   0.005   0.003   0.002   0.002   0.003   0.008   0.589   0.010
   15 200   124  16.00  28.00  16.00 -99.000   3.654   2.954   0.703   4.358   3.986   0.373   0.000   0.000  441.57  340.27  226.46  113.81    0.00    0.00 -99.000 -99.000 -99.000   0.280   0.052   0.008   0.010   0.005   0.003   0.002   0.002   0.003   0.008   0.399   0.007
   15 201   125  19.00  28.00  18.00 -99.000   4.409   3.537   0.876   3.557   3.212   0.346   0.000   0.000  445.98  343.83  229.67  114.16    0.00    0.00 -99.000 -99.000 -99.000   0.255   0.051   0.008   0.009   0.005   0.003   0.002   0.002   0.003   0.008   0.321   0.005
   15 202   126  26.00  32.00  16.00 -99.000   6.221   4.944   1.281   3.315   2.994   0.322   0.000   0.000  452.20  347.15  232.66  114.48    0.00    0.00 -99.000 -99.000 -99.000   0.232   0.050   0.008   0.009   0.005   0.003   0.002   0.002   0.003   0.008   0.299   0.004
   15 203   127  25.00  34.00  15.00 -99.000   6.076   4.775   1.305   5.607   5.308   0.299   0.000   0.000  458.28  352.75  237.97  114.78    0.00    0.00 -99.000 -99.000 -99.000   0.211   0.049   0.008   0.009   0.005   0.003   0.002   0.002   0.003   0.007   0.531   0.003
   15 204   128  12.00  24.00  18.00 -99.000   2.667   2.069   0.600   5.852   5.529   0.324   0.000   0.000  460.94  358.60  243.50  115.10    0.00    0.00 -99.000 -99.000 -99.000   0.237   0.048   0.008   0.009   0.005   0.003   0.002   0.002   0.003   0.007   0.553   0.002
   15 205   129  21.00  29.00  14.00 -99.000   4.808   3.675   1.137   1.453   1.107   0.346   0.000   0.000  465.75  360.06  244.61  115.45    0.00    0.00 -99.000 -99.000 -99.000   0.261   0.047   0.008   0.009   0.005   0.003   0.002   0.002   0.002   0.007   0.111   0.002
   15 206   130  21.00  25.00  12.00 -99.000   4.519   3.401   1.122   3.974   3.652   0.322   0.000   0.000  470.27  364.03  248.26  115.77    0.00    0.00 -99.000 -99.000 -99.000   0.237   0.047   0.008   0.009   0.005   0.003   0.002   0.002   0.002   0.007   0.365   0.002
   15 207   131  26.00  23.00   8.00 -99.000   5.283   3.906   1.383   3.056   2.755   0.300   0.000   0.000  475.55  367.09  251.02  116.07    0.00    0.00 -99.000 -99.000 -99.000   0.216   0.047   0.008   0.009   0.005   0.003   0.002   0.001   0.002   0.007   0.276   0.002
   15 208   132  19.00  23.00  12.00 -99.000   4.002   2.906   1.099   2.574   2.160   0.415   0.000   0.000  479.55  369.66  253.17  116.49    0.00    0.00 -99.000 -99.000 -99.000   0.331   0.046   0.008   0.009   0.005   0.003   0.002   0.001   0.002   0.007   0.216   0.002
   15 209   133  17.00  22.00  12.00 -99.000   3.553   2.538   1.018   1.647   1.083   0.564   0.000   0.000  483.11  371.31  254.26  117.05    0.00    0.00 -99.000 -99.000 -99.000   0.481   0.046   0.008   0.009   0.005   0.003   0.002   0.001   0.002   0.007   0.108   0.002
   15 210   134  12.00  20.00   9.00 -99.000   2.384   1.668   0.718   1.032   0.519   0.513   0.000   0.000  485.49  372.34  254.78  117.56    0.00    0.00 -99.000 -99.000 -99.000   0.430   0.046   0.008   0.009   0.005   0.003   0.002   0.001   0.002   0.007   0.052   0.002
   15 211   135  21.00  21.00   7.00 -99.000   4.164   2.848   1.320   1.042   0.570   0.472   0.000   0.000  489.66  373.38  255.35  118.04    0.00    0.00 -99.000 -99.000 -99.000   0.390   0.046   0.008   0.009   0.005   0.003   0.002   0.001   0.002   0.007   0.057   0.002
   15 212   136  25.00  23.00   9.00 -99.000   5.185   3.471   1.719   0.400   0.014   0.386   0.000   0.000  494.84  373.78  255.36  118.42    0.00    0.00 -99.000 -99.000 -99.000   0.304   0.045   0.008   0.009   0.005   0.003   0.002   0.001   0.002   0.007   0.001   0.001
   15 213   137  10.00  20.00  13.00 -99.000   2.069   1.353   0.717   0.373   0.014   0.358   0.000   0.000  496.91  374.16  255.38  118.78    0.00    0.00 -99.000 -99.000 -99.000   0.277   0.045   0.008   0.009   0.005   0.003   0.002   0.001   0.002   0.007   0.001   0.001
   15 214   138  19.00  25.00  12.00 -99.000   4.163   2.644   1.521   0.348   0.014   0.333   0.000   0.000  501.07  374.50  255.39  119.11    0.00    0.00 -99.000 -99.000 -99.000   0.252   0.045   0.008   0.009   0.005   0.003   0.002   0.001   0.002   0.007   0.001   0.001
   15 215   139  26.00  28.00  11.00 -99.000   5.876   3.607   2.273   0.325   0.014   0.310   0.000   0.000  506.95  374.83  255.40  119.42    0.00    0.00 -99.000 -99.000 -99.000   0.229   0.045   0.008   0.009   0.005   0.003   0.002   0.001   0.002   0.007   0.001   0.001
   15 216   140  21.00  31.00  12.00 -99.000   4.972   2.921   2.054   0.304   0.014   0.290   0.000   0.000  511.92  375.13  255.42  119.71    0.00    0.00 -99.000 -99.000 -99.000   0.209   0.044   0.008   0.009   0.005   0.003   0.002   0.001   0.002   0.007   0.001   0.001
   15 217   141  24.00  29.00  13.00 -99.000   5.619   3.128   2.495   0.285   0.014   0.271   0.000   0.000  517.54  375.42  255.43  119.98    0.00    0.00 -99.000 -99.000 -99.000   0.190   0.044   0.008   0.009   0.005   0.003   0.002   0.001   0.002   0.007   0.001   0.001
   15 218   142  25.00  33.00  13.00 -99.000   6.170   3.120   3.054   0.267   0.014   0.253   0.000   0.000  523.71  375.68  255.45  120.24    0.00    0.00 -99.000 -99.000 -99.000   0.173   0.044   0.008   0.009   0.005   0.003   0.002   0.001   0.002   0.007   0.001   0.001
   15 219   143  25.00  35.00  14.00 -99.000   6.392   2.957   3.438   0.251   0.014   0.238   0.000   0.000  530.10  375.93  255.46  120.47    0.00    0.00 -99.000 -99.000 -99.000   0.157   0.044   0.008   0.009   0.005   0.003   0.002   0.001   0.002   0.007   0.001   0.001
   15 220   144  22.00  34.00  15.00 -99.000   5.689   2.046   3.645   0.282   0.014   0.268   0.000   0.000  535.79  376.22  255.47  120.74    0.00    0.00 -99.000 -99.000 -99.000   0.188   0.043   0.008   0.009   0.005   0.003   0.002   0.001   0.002   0.007   0.001   0.001
   15 221   145  22.00  33.00  16.00 -99.000   5.836   1.066   4.771   0.309   0.013   0.296   0.000   0.000  541.63  376.52  255.49  121.04    0.00    0.00 -99.000 -99.000 -99.000   0.216   0.043   0.008   0.009   0.005   0.003   0.002   0.001   0.002   0.007   0.001   0.001
   15 222   146  18.00  30.00  17.00 -99.000   4.779   0.000   4.779   0.276   0.000   0.276   0.000   0.000  546.41  376.80  255.49  121.31    0.00    0.00 -99.000 -99.000 -99.000   0.197   0.043   0.008   0.009   0.005   0.003   0.002   0.001   0.002   0.007   0.000   0.000
   15 223   147  19.00  31.00  16.00 -99.000   5.060   0.000   5.060   0.258   0.000   0.258   0.000   0.000  551.46  377.06  255.49  121.57    0.00    0.00 -99.000 -99.000 -99.000   0.179   0.043   0.008   0.009   0.005   0.003   0.002   0.001   0.002   0.007   0.000   0.000
   15 224   148  21.00  33.00  14.00 -99.000   5.629   0.000   5.629   0.242   0.000   0.242   0.000   0.000  557.09  377.30  255.49  121.81    0.00    0.00 -99.000 -99.000 -99.000   0.163   0.042   0.008   0.009   0.005   0.003   0.002   0.001   0.002   0.007   0.000   0.000
   15 225   149  21.00  33.00  14.00 -99.000   5.625   0.000   5.625   0.227   0.000   0.227   0.000   0.000  562.72  377.53  255.49  122.04    0.00    0.00 -99.000 -99.000 -99.000   0.148   0.042   0.008   0.009   0.005   0.003   0.002   0.001   0.002   0.007   0.000   0.000
   15 226   150  19.00  32.00  17.00 -99.000   5.142   0.000   5.142   0.393   0.000   0.393   0.000   0.000  567.86  377.92  255.49  122.43    0.00    0.00 -99.000 -99.000 -99.000   0.314   0.042   0.008   0.009   0.005   0.003   0.002   0.001   0.002   0.007   0.000   0.000
   15 227   151  15.00  25.00  15.00 -99.000   3.749   0.000   3.749   0.543   0.000   0.543   0.000   0.000  571.61  378.46  255.49  122.98    0.00    0.00 -99.000 -99.000 -99.000   0.466   0.042   0.008   0.009   0.005   0.003   0.002   0.001   0.002   0.007   0.000   0.000
   15 228   152   6.00  18.00  14.00 -99.000   1.359   0.000   1.359   0.760   0.000   0.760   0.000   0.000  572.97  379.22  255.49  123.74    0.00    0.00 -99.000 -99.000 -99.000   0.682   0.042   0.008   0.009   0.005   0.003   0.002   0.001   0.002   0.007   0.000   0.000
   15 229   153   6.00  15.00  12.00 -99.000   1.309   0.000   1.309   1.309   0.000   1.309   0.000   0.000  574.28  380.53  255.49  125.05    0.00    0.00 -99.000 -99.000 -99.000   0.383   0.109   0.036   0.063   0.053   0.046   0.041   0.037   0.063   0.478   0.000   0.000
   15 230   154  17.00  21.00  11.00 -99.000   4.017   0.000   4.017   4.017   0.000   4.017   0.000   0.000  578.30  384.55  255.49  129.06    0.00    0.00 -99.000 -99.000 -99.000   1.164   0.377   0.110   0.192   0.159   0.138   0.124   0.111   0.191   1.452   0.000   0.000
   15 231   155  10.00  20.00  13.00 -99.000   2.354   0.000   2.354   0.969   0.000   0.969   0.000   0.000  580.65  385.52  255.49  130.03    0.00    0.00 -99.000 -99.000 -99.000   0.880   0.054   0.007   0.008   0.005   0.003   0.002   0.001   0.002   0.007   0.000   0.000
   15 232   156  11.00  20.00  12.00 -99.000   2.558   0.000   2.558   0.890   0.000   0.890   0.000   0.000  583.21  386.41  255.49  130.92    0.00    0.00 -99.000 -99.000 -99.000   0.801   0.053   0.007   0.008   0.005   0.003   0.002   0.001   0.002   0.007   0.000   0.000
   15 233   157  16.00  21.00   9.00 -99.000   3.660   0.000   3.660   0.818   0.000   0.818   0.000   0.000  586.87  387.23  255.49  131.74    0.00    0.00 -99.000 -99.000 -99.000   0.730   0.053   0.007   0.008   0.005   0.003   0.002   0.001   0.002   0.007   0.000   0.000
   15 234   158  21.00  24.00   8.00 -99.000   4.937   0.000   4.937   0.752   0.000   0.752   0.000   0.000  591.80  387.98  255.49  132.49    0.00    0.00 -99.000 -99.000 -99.000   0.664   0.053   0.007   0.008   0.005   0.003   0.002   0.001   0.002   0.007   0.000   0.000
   15 235   159  20.00  27.00  11.00 -99.000   4.991   0.000   4.991   0.782   0.000   0.782   0.000   0.000  596.80  388.76  255.49  133.27    0.00    0.00 -99.000 -99.000 -99.000   0.694   0.052   0.007   0.008   0.005   0.003   0.002   0.001   0.002   0.007   0.000   0.000
   15 236   160  16.00  28.00  14.00 -99.000   4.160   0.000   4.160   4.160   0.000   4.160   0.000   0.000  600.96  392.92  255.49  137.43    0.00    0.00 -99.000 -99.000 -99.000   1.156   0.613   0.120   0.181   0.151   0.132   0.119   0.106   0.183   1.399   0.000   0.000
   15 237   161  20.00  21.00   8.00 -99.000   4.631   0.000   4.631   4.631   0.000   4.631   0.000   0.000  605.59  397.55  255.49  142.07    0.00    0.00 -99.000 -99.000 -99.000   1.344   0.868   0.154   0.179   0.150   0.131   0.118   0.106   0.182   1.400   0.000   0.000

*DSSAT Cropping System Model Ver. 4.8.5.000 -release  NOV 27, 2025 15:48:13

*RUN   2        : 2                         WHAPS048 TUDU1501    2
 MODEL          : WHAPS048 - Wheat
 EXPERIMENT     : TUDU1501 WH
 DATA PATH      :
 TREATMENT  2   : 2                         WHAPS048
  
!                                                                                                                                                                                        Soil evaporation (mm/d) by soil depth (cm):
!                                                                                                                                                                                        0-5    5-15   15-20   20-30   30-40   40-50   50-60   60-70   70-90  90-210
@YEAR DOY   DAS   SRAA  TMAXA  TMINA    REFA    EOAA    EOPA    EOSA    ETAA    EPAA    ESAA    EFAA    EMAA    EOAC    ETAC    EPAC    ESAC    EFAC    EMAC    KCAA    KBSA    KEAA    ES1D    ES2D    ES3D    ES4D    ES5D    ES6D    ES7D    ES8D    ES9D  ES10D   TRWUD   TWUPD
   15 077     1  16.00  14.00   0.00 -99.000   3.046   0.000   3.046   3.046   0.000   3.046   0.000   0.000    3.05    3.05    0.00    3.05    0.00    0.00 -99.000 -99.000 -99.000   0.530   0.419   0.151   0.232   0.200   0.167   0.144   0.127   0.221   0.856   0.000   0.000
   15 078     2  17.00  13.00  -1.00 -99.000   3.150   0.000   3.150   3.150   0.000   3.150   0.000   0.000    6.20    6.20    0.00    6.20    0.00    0.00 -99.000 -99.000 -99.000   0.543   0.433   0.156   0.240   0.207   0.173   0.149   0.132   0.229   0.888   0.000   0.000
   15 079     3  17.00  13.00  -2.00 -99.000   3.108   0.000   3.108   1.034   0.000   1.034   0.000   0.000    9.30    7.23    0.00    7.23    0.00    0.00 -99.000 -99.000 -99.000   0.843   0.114   0.020   0.020   0.011   0.007   0.004   0.003   0.004   0.008   0.000   0.000
   15 080     4  13.00  14.00  -3.00 -99.000   2.381   0.000   2.381   1.049   0.000   1.049   0.000   0.000   11.68    8.28    0.00    8.28    0.00    0.00 -99.000 -99.000 -99.000   0.859   0.113   0.020   0.020   0.011   0.007   0.004   0.003   0.004   0.008   0.000   0.000
   15 081     5   5.00   5.00   2.00 -99.000   0.834   0.000   0.834   0.834   0.000   0.834   0.000   0.000   12.52    9.11    0.00    9.11    0.00    0.00 -99.000 -99.000 -99.000   0.685   0.088   0.016   0.015   0.009   0.005   0.004   0.003   0.003   0.007   0.000   0.000
   15 082     6   7.00   6.00   0.00 -99.000   1.157   0.000   1.157   0.991   0.000   0.991   0.000   0.000   13.67   10.10    0.00   10.10    0.00    0.00 -99.000 -99.000 -99.000   0.802   0.112   0.020   0.019   0.011   0.007   0.004   0.003   0.004   0.008   0.000   0.000
   15 083     7  15.00  15.00  -2.00 -99.000   2.819   0.000   2.819   0.911   0.000   0.911   0.000   0.000   16.49   11.01    0.00   11.01    0.00    0.00 -99.000 -99.000 -99.000   0.723   0.111   0.020   0.019   0.011   0.007   0.004   0.003   0.004   0.008   0.000   0.000
   15 084     8  14.00  15.00   2.00 -99.000   2.735   0.000   2.735   0.839   0.000   0.839   0.000   0.000   19.23   11.85    0.00   11.85    0.00    0.00 -99.000 -99.000 -99.000   0.652   0.110   0.020   0.019   0.011   0.007   0.004   0.003   0.004   0.008   0.000   0.000
   15 085     9   3.00   7.00   4.00 -99.000   0.524   0.000   0.524   0.524   0.000   0.524   0.000   0.000   19.75   12.38    0.00   12.38    0.00    0.00 -99.000 -99.000 -99.000   0.398   0.074   0.013   0.013   0.007   0.004   0.003   0.002   0.003   0.006   0.000   0.000
   15 086    10  10.00   9.00   3.00 -99.000   1.784   0.000   1.784   0.784   0.000   0.784   0.000   0.000   21.54   13.16    0.00   13.16    0.00    0.00 -99.000 -99.000 -99.000   0.598   0.109   0.020   0.019   0.011   0.007   0.004   0.003   0.004   0.008   0.000   0.000
   15 087    11  17.00  11.00   1.00 -99.000   3.073   0.000   3.073   0.772   0.000   0.772   0.000   0.000   24.61   13.93    0.00   13.93    0.00    0.00 -99.000 -99.000 -99.000   0.587   0.109   0.020   0.019   0.011   0.007   0.004   0.003   0.004   0.008   0.000   0.000
   15 088    12   6.00  12.00   6.00 -99.000   1.160   0.000   1.160   0.714   0.000   0.714   0.000   0.000   25.77   14.65    0.00   14.65    0.00    0.00 -99.000 -99.000 -99.000   0.529   0.108   0.020   0.019   0.011   0.007   0.004   0.003   0.004   0.008   0.000   0.000
   15 089    13   9.00   9.00   3.00 -99.000   1.601   0.000   1.601   0.961   0.000   0.961   0.000   0.000   27.37   15.61    0.00   15.61    0.00    0.00 -99.000 -99.000 -99.000   0.774   0.110   0.020   0.019   0.011   0.007   0.004   0.003   0.004   0.008   0.000   0.000
   15 090    14   8.00  13.00   1.00 -99.000   1.518   0.018   1.500   1.518   0.018   1.500   0.000   0.000   28.89   17.12    0.02   17.11    0.00    0.00 -99.000 -99.000 -99.000   0.300   0.202   0.070   0.109   0.095   0.079   0.069   0.061   0.105   0.410   0.002   0.007
   15 091    15  13.00   6.00   0.00 -99.000   2.171   0.029   2.143   2.156   0.013   2.143   0.000   0.000   31.06   19.28    0.03   19.25    0.00    0.00 -99.000 -99.000 -99.000   0.453   0.300   0.099   0.151   0.131   0.110   0.095   0.085   0.147   0.571   0.001   0.007
   15 092    16   7.00   6.00   0.00 -99.000   1.171   0.017   1.155   1.160   0.005   1.155   0.000   0.000   32.23   20.44    0.04   20.40    0.00    0.00 -99.000 -99.000 -99.000   0.253   0.166   0.056   0.080   0.069   0.058   0.050   0.044   0.077   0.301   0.000   0.007
   15 093    17  20.00   9.00  -1.00 -99.000   3.505   0.053   3.452   3.456   0.004   3.452   0.000   0.000   35.73   23.90    0.04   23.86    0.00    0.00 -99.000 -99.000 -99.000   0.699   0.501   0.171   0.257   0.212   0.176   0.152   0.135   0.234   0.915   0.000   0.007
   15 094    18   7.00   5.00   1.00 -99.000   1.158   0.020   1.138   1.154   0.016   1.138   0.000   0.000   36.89   25.05    0.06   24.99    0.00    0.00 -99.000 -99.000 -99.000   0.234   0.164   0.057   0.088   0.070   0.057   0.049   0.044   0.076   0.299   0.002   0.007
   15 095    19  13.00   6.00  -2.00 -99.000   2.124   0.039   2.085   2.088   0.003   2.085   0.000   0.000   39.02   27.14    0.06   27.08    0.00    0.00 -99.000 -99.000 -99.000   0.412   0.301   0.104   0.163   0.130   0.108   0.093   0.081   0.141   0.552   0.000   0.007
   15 096    20  10.00   6.00  -2.00 -99.000   1.622   0.031   1.591   1.599   0.008   1.591   0.000   0.000   40.64   28.74    0.07   28.67    0.00    0.00 -99.000 -99.000 -99.000   0.297   0.230   0.079   0.126   0.101   0.086   0.074   0.063   0.109   0.427   0.001   0.007
   15 097    21  20.00   8.00  -2.00 -99.000   3.357   0.068   3.289   3.296   0.007   3.289   0.000   0.000   44.00   32.03    0.07   31.96    0.00    0.00 -99.000 -99.000 -99.000   0.600   0.475   0.164   0.261   0.210   0.178   0.153   0.130   0.227   0.890   0.001   0.007
   15 098    22  19.00  13.00   0.00 -99.000   3.546   0.080   3.466   1.109   0.019   1.090   0.000   0.000   47.54   33.14    0.09   33.05    0.00    0.00 -99.000 -99.000 -99.000   0.891   0.121   0.020   0.021   0.011   0.007   0.004   0.003   0.004   0.008   0.002   0.007
   15 099    23  20.00  18.00   2.00 -99.000   4.100   0.108   3.992   1.048   0.045   1.003   0.000   0.000   51.64   34.19    0.14   34.05    0.00    0.00 -99.000 -99.000 -99.000   0.805   0.120   0.020   0.021   0.011   0.007   0.004   0.003   0.004   0.008   0.005   0.007
   15 100    24  20.00  21.00   1.00 -99.000   4.223   0.134   4.088   1.020   0.097   0.923   0.000   0.000   55.86   35.21    0.24   34.98    0.00    0.00 -99.000 -99.000 -99.000   0.725   0.119   0.020   0.021   0.011   0.007   0.004   0.003   0.004   0.008   0.010   0.007
   15 101    25  13.00  18.00   5.00 -99.000   2.720   0.101   2.619   0.978   0.131   0.847   0.000   0.000   58.58   36.19    0.37   35.82    0.00    0.00 -99.000 -99.000 -99.000   0.651   0.118   0.020   0.021   0.011   0.007   0.004   0.003   0.004   0.008   0.013   0.007
   15 102    26  15.00  18.00   5.00 -99.000   3.126   0.134   2.992   0.870   0.092   0.777   0.000   0.000   61.71   37.06    0.46   36.60    0.00    0.00 -99.000 -99.000 -99.000   0.582   0.117   0.020   0.021   0.011   0.007   0.004   0.003   0.004   0.008   0.009   0.004
   15 103    27  15.00  18.00   5.00 -99.000   3.114   0.156   2.958   0.834   0.117   0.717   0.000   0.000   64.83   37.89    0.58   37.32    0.00    0.00 -99.000 -99.000 -99.000   0.522   0.116   0.020   0.021   0.011   0.007   0.004   0.003   0.004   0.008   0.012   0.002
   15 104    28  20.00  18.00   5.00 -99.000   4.137   0.242   3.895   0.798   0.137   0.661   0.000   0.000   68.96   38.69    0.71   37.98    0.00    0.00 -99.000 -99.000 -99.000   0.468   0.115   0.020   0.021   0.011   0.007   0.004   0.003   0.004   0.008   0.014   0.002
   15 105    29  23.00  23.00   5.00 -99.000   5.079   0.356   4.724   0.802   0.191   0.611   0.000   0.000   74.04   39.49    0.90   38.59    0.00    0.00 -99.000 -99.000 -99.000   0.419   0.114   0.020   0.021   0.011   0.007   0.004   0.003   0.004   0.008   0.019   0.002
   15 106    30  14.00  21.00   9.00 -99.000   3.106   0.264   2.843   0.971   0.405   0.566   0.000   0.000   77.15   40.46    1.31   39.16    0.00    0.00 -99.000 -99.000 -99.000   0.376   0.113   0.020   0.021   0.011   0.007   0.004   0.003   0.004   0.008   0.040   0.002
   15 107    31   8.00  16.00   5.00 -99.000   1.589   0.151   1.438   1.636   0.198   1.438   0.000   0.000   78.74   42.10    1.51   40.59    0.00    0.00 -99.000 -99.000 -99.000   0.233   0.225   0.079   0.117   0.092   0.078   0.067   0.057   0.099   0.390   0.020   0.002
   15 108    32  18.00  10.00   0.00 -99.000   3.201   0.328   2.874   2.972   0.098   2.874   0.000   0.000   81.94   45.07    1.60   43.47    0.00    0.00 -99.000 -99.000 -99.000   0.585   0.438   0.150   0.220   0.175   0.147   0.127   0.111   0.192   0.729   0.010   0.008
   15 109    33  24.00  12.00   0.00 -99.000   4.365   0.486   3.880   4.001   0.121   3.880   0.000   0.000   86.30   49.07    1.72   47.35    0.00    0.00 -99.000 -99.000 -99.000   0.728   0.571   0.197   0.304   0.242   0.204   0.180   0.160   0.277   1.017   0.012   0.008
   15 110    34  24.00  16.00   0.00 -99.000   4.619   0.572   4.048   4.270   0.222   4.048   0.000   0.000   90.92   53.34    1.95   51.40    0.00    0.00 -99.000 -99.000 -99.000   0.718   0.588   0.203   0.321   0.257   0.217   0.192   0.171   0.294   1.087   0.022   0.008
   15 111    35  25.00  19.00   1.00 -99.000   5.051   0.733   4.319   1.462   0.431   1.031   0.000   0.000   95.97   54.81    2.38   52.43    0.00    0.00 -99.000 -99.000 -99.000   0.832   0.120   0.020   0.021   0.011   0.007   0.005   0.003   0.004   0.008   0.043   0.008
   15 112    36  24.00  19.00   2.00 -99.000   4.853   0.845   4.009   1.634   0.704   0.930   0.000   0.000  100.83   56.44    3.08   53.36    0.00    0.00 -99.000 -99.000 -99.000   0.733   0.118   0.020   0.021   0.011   0.007   0.005   0.003   0.004   0.008   0.070   0.009
   15 113    37  15.00  12.00   0.00 -99.000   2.640   0.545   2.096   1.630   0.802   0.828   0.000   0.000  103.47   58.07    3.88   54.19    0.00    0.00 -99.000 -99.000 -99.000   0.634   0.116   0.020   0.021   0.011   0.007   0.005   0.003   0.004   0.008   0.080   0.009
   15 114    38  24.00  18.00   0.00 -99.000   4.620   1.012   3.609   1.046   0.308   0.738   0.000   0.000  108.09   59.12    4.19   54.92    0.00    0.00 -99.000 -99.000 -99.000   0.546   0.113   0.020   0.020   0.011   0.007   0.005   0.003   0.004   0.008   0.031   0.005
   15 115    39  12.00  19.00   3.00 -99.000   2.399   0.587   1.813   1.684   0.961   0.724   0.000   0.000  110.49   60.80    5.15   55.65    0.00    0.00 -99.000 -99.000 -99.000   0.534   0.112   0.020   0.020   0.011   0.007   0.005   0.003   0.004   0.008   0.096   0.004
   15 116    40  19.00  20.00  10.00 -99.000   4.094   1.114   2.981   1.452   0.708   0.744   0.000   0.000  114.58   62.25    5.86   56.39    0.00    0.00 -99.000 -99.000 -99.000   0.558   0.108   0.020   0.020   0.011   0.007   0.005   0.003   0.004   0.008   0.071   0.005
   15 117    41  21.00  22.00   6.00 -99.000   4.459   1.391   3.071   1.769   0.830   0.938   0.000   0.000  119.04   64.02    6.69   57.33    0.00    0.00 -99.000 -99.000 -99.000   0.754   0.106   0.020   0.020   0.011   0.007   0.005   0.003   0.004   0.008   0.083   0.006
   15 118    42   8.00  12.00   4.00 -99.000   1.445   0.509   0.936   2.500   1.564   0.936   0.000   0.000  120.48   66.52    8.25   58.27    0.00    0.00 -99.000 -99.000 -99.000   0.190   0.123   0.044   0.071   0.058   0.050   0.044   0.039   0.068   0.250   0.156   0.012
   15 119    43  22.00  13.00   0.00 -99.000   3.881   1.445   2.438   2.718   0.279   2.438   0.000   0.000  124.37   69.24    8.53   60.70    0.00    0.00 -99.000 -99.000 -99.000   0.487   0.337   0.111   0.183   0.151   0.129   0.114   0.101   0.175   0.649   0.028   0.013
   15 120    44  16.00  15.00   5.00 -99.000   3.047   1.176   1.873   2.704   0.831   1.873   0.000   0.000  127.41   71.94    9.37   62.58    0.00    0.00 -99.000 -99.000 -99.000   0.362   0.267   0.085   0.141   0.116   0.099   0.088   0.078   0.135   0.502   0.083   0.013
   15 121    45   8.00   9.00   7.00 -99.000   1.408   0.583   0.826   1.564   0.738   0.826   0.000   0.000  128.82   73.51   10.10   63.40    0.00    0.00 -99.000 -99.000 -99.000   0.169   0.129   0.043   0.065   0.050   0.042   0.036   0.032   0.055   0.205   0.074   0.014
   15 122    46  12.00  13.00   7.00 -99.000   2.260   0.978   1.283   1.358   0.075   1.283   0.000   0.000  131.08   74.86   10.18   64.69    0.00    0.00 -99.000 -99.000 -99.000   0.261   0.200   0.075   0.109   0.081   0.065   0.056   0.048   0.082   0.305   0.008   0.015
   15 123    47   9.00  16.00  10.00 -99.000   1.808   0.831   0.978   1.377   0.399   0.978   0.000   0.000  132.89   76.24   10.58   65.66    0.00    0.00 -99.000 -99.000 -99.000   0.205   0.154   0.056   0.082   0.063   0.051   0.043   0.037   0.062   0.226   0.040   0.016
   15 124    48  16.00  20.00  14.00 -99.000   3.506   1.717   1.791   2.248   0.456   1.791   0.000   0.000  136.39   78.49   11.03   67.46    0.00    0.00 -99.000 -99.000 -99.000   0.354   0.270   0.094   0.146   0.114   0.094   0.081   0.071   0.120   0.448   0.046   0.017
   15 125    49  12.00  25.00  12.00 -99.000   2.719   1.441   1.279   2.184   0.905   1.279   0.000   0.000  139.11   80.67   11.94   68.73    0.00    0.00 -99.000 -99.000 -99.000   0.252   0.186   0.067   0.102   0.081   0.067   0.058   0.051   0.086   0.328   0.090   0.018
   15 126    50  14.00  14.00   8.00 -99.000   2.623   1.484   1.141   3.028   1.887   1.141   0.000   0.000  141.74   83.70   13.82   69.88    0.00    0.00 -99.000 -99.000 -99.000   0.234   0.173   0.061   0.094   0.073   0.059   0.051   0.044   0.073   0.278   0.189   0.019
   15 127    51  22.00  18.00   8.00 -99.000   4.360   2.556   1.808   2.443   0.635   1.808   0.000   0.000  146.10   86.14   14.46   71.68    0.00    0.00 -99.000 -99.000 -99.000   0.347   0.272   0.093   0.149   0.115   0.094   0.082   0.072   0.121   0.464   0.063   0.020
   15 128    52  23.00  22.00   8.00 -99.000   4.774   2.904   1.875   3.632   1.757   1.875   0.000   0.000  150.87   89.78   16.22   73.56    0.00    0.00 -99.000 -99.000 -99.000   0.341   0.272   0.094   0.150   0.118   0.099   0.086   0.076   0.131   0.507   0.176   0.021
   15 129    53  13.00  17.00  10.00 -99.000   2.550   1.612   0.941   3.963   3.023   0.941   0.000   0.000  153.42   93.74   19.24   74.50    0.00    0.00 -99.000 -99.000 -99.000   0.176   0.134   0.047   0.074   0.059   0.049   0.043   0.038   0.066   0.254   0.302   0.023
   15 130    54  22.00  19.00   7.00 -99.000   4.308   2.809   1.503   2.477   0.974   1.503   0.000   0.000  157.73   96.22   20.21   76.00    0.00    0.00 -99.000 -99.000 -99.000   0.277   0.210   0.073   0.117   0.094   0.079   0.070   0.062   0.107   0.414   0.097   0.025
   15 131    55  23.00  21.00   5.00 -99.000   4.524   3.033   1.496   3.879   2.383   1.496   0.000   0.000  162.25  100.09   22.60   77.50    0.00    0.00 -99.000 -99.000 -99.000   0.265   0.208   0.073   0.117   0.094   0.080   0.070   0.063   0.108   0.419   0.238   0.026
   15 132    56  23.00  27.00   8.00 -99.000   5.000   3.438   1.566   5.000   3.434   1.566   0.000   0.000  167.25  105.09   26.03   79.06    0.00    0.00 -99.000 -99.000 -99.000   0.260   0.215   0.076   0.123   0.099   0.084   0.075   0.067   0.116   0.450   0.343   0.028
   15 133    57  20.00  22.00  13.00 -99.000   4.235   3.006   1.233   6.445   5.213   1.233   0.000   0.000  171.49  111.54   31.24   80.30    0.00    0.00 -99.000 -99.000 -99.000   0.225   0.167   0.057   0.093   0.076   0.065   0.058   0.052   0.090   0.350   0.521   0.029
   15 134    58  18.00  18.00  11.00 -99.000   3.554   2.594   0.964   3.292   2.328   0.964   0.000   0.000  175.04  114.83   33.57   81.26    0.00    0.00 -99.000 -99.000 -99.000   0.183   0.130   0.043   0.070   0.057   0.049   0.044   0.041   0.071   0.275   0.233   0.031
   15 135    59   8.00  15.00   7.00 -99.000   1.452   1.082   0.372   1.758   1.386   0.372   0.000   0.000  176.49  116.59   34.96   81.63    0.00    0.00 -99.000 -99.000 -99.000   0.308   0.038   0.006   0.007   0.003   0.002   0.002   0.001   0.002   0.003   0.139   0.033
   15 136    60  24.00  19.00   5.00 -99.000   4.516   3.411   1.110   1.731   0.724   1.006   0.000   0.000  181.01  118.32   35.68   82.64    0.00    0.00 -99.000 -99.000 -99.000   0.826   0.108   0.017   0.018   0.010   0.006   0.004   0.003   0.004   0.009   0.072   0.035
   15 137    61  17.00  17.00  10.00 -99.000   3.250   2.490   0.763   3.644   2.881   0.763   0.000   0.000  184.26  121.96   38.56   83.40    0.00    0.00 -99.000 -99.000 -99.000   0.621   0.085   0.014   0.015   0.008   0.005   0.003   0.003   0.003   0.007   0.288   0.036
   15 138    62  26.00  23.00   7.00 -99.000   5.235   4.074   1.167   2.136   1.238   0.898   0.000   0.000  189.49  124.10   39.80   84.30    0.00    0.00 -99.000 -99.000 -99.000   0.724   0.103   0.017   0.018   0.010   0.006   0.004   0.003   0.004   0.009   0.124   0.037
   15 139    63  10.00  18.00   9.00 -99.000   1.911   1.511   0.402   4.555   4.153   0.402   0.000   0.000  191.40  128.66   43.95   84.70    0.00    0.00 -99.000 -99.000 -99.000   0.078   0.057   0.018   0.028   0.023   0.020   0.018   0.017   0.030   0.115   0.415   0.039
   15 140    64   8.00  10.00   6.00 -99.000   1.321   1.064   0.259   1.238   0.979   0.259   0.000   0.000  192.73  129.89   44.93   84.96    0.00    0.00 -99.000 -99.000 -99.000   0.059   0.041   0.013   0.018   0.014   0.011   0.010   0.010   0.017   0.066   0.098   0.040
   15 141    65  12.00  12.00   7.00 -99.000   2.064   1.679   0.387   0.607   0.220   0.387   0.000   0.000  194.79  130.50   45.15   85.35    0.00    0.00 -99.000 -99.000 -99.000   0.080   0.061   0.023   0.031   0.022   0.017   0.015   0.014   0.025   0.098   0.022   0.041
   15 142    66  22.00  15.00   4.00 -99.000   3.829   3.158   0.676   1.087   0.410   0.676   0.000   0.000  198.62  131.59   45.56   86.02    0.00    0.00 -99.000 -99.000 -99.000   0.130   0.100   0.036   0.054   0.041   0.033   0.029   0.026   0.046   0.180   0.041   0.041
   15 143    67  15.00  16.00   6.00 -99.000   2.693   2.260   0.436   1.769   1.332   0.436   0.000   0.000  201.31  133.36   46.90   86.46    0.00    0.00 -99.000 -99.000 -99.000   0.086   0.063   0.023   0.034   0.027   0.022   0.019   0.017   0.030   0.115   0.133   0.041
   15 144    68  12.00  15.00   8.00 -99.000   2.162   1.836   0.329   1.289   0.960   0.329   0.000   0.000  203.47  134.64   47.86   86.79    0.00    0.00 -99.000 -99.000 -99.000   0.065   0.047   0.017   0.026   0.020   0.017   0.015   0.013   0.022   0.087   0.096   0.042
   15 145    69  15.00  19.00   9.00 -99.000   2.882   2.468   0.417   0.974   0.557   0.417   0.000   0.000  206.36  135.62   48.41   87.21    0.00    0.00 -99.000 -99.000 -99.000   0.078   0.059   0.021   0.033   0.026   0.022   0.019   0.017   0.029   0.114   0.056   0.042
   15 146    70  13.00  15.00   8.00 -99.000   2.334   2.018   0.319   1.409   1.089   0.319   0.000   0.000  208.69  137.03   49.50   87.53    0.00    0.00 -99.000 -99.000 -99.000   0.058   0.045   0.016   0.025   0.020   0.017   0.015   0.013   0.023   0.088   0.109   0.043
   15 147    71  17.00  14.00   4.00 -99.000   2.885   2.512   0.377   0.913   0.536   0.377   0.000   0.000  211.57  137.94   50.04   87.90    0.00    0.00 -99.000 -99.000 -99.000   0.067   0.053   0.018   0.029   0.024   0.020   0.018   0.016   0.027   0.105   0.054   0.043
   15 148    72  27.00  20.00   3.00 -99.000   4.954   4.337   0.624   1.336   0.712   0.624   0.000   0.000  216.53  139.28   50.75   88.53    0.00    0.00 -99.000 -99.000 -99.000   0.110   0.087   0.030   0.049   0.039   0.033   0.029   0.026   0.045   0.175   0.071   0.044
   15 149    73  21.00  23.00   7.00 -99.000   4.158   3.669   0.493   2.516   2.023   0.493   0.000   0.000  220.69  141.79   52.77   89.02    0.00    0.00 -99.000 -99.000 -99.000   0.403   0.054   0.009   0.010   0.005   0.003   0.002   0.002   0.002   0.004   0.202   0.044
   15 150    74  17.00  18.00  11.00 -99.000   3.258   2.892   0.370   2.200   1.830   0.370   0.000   0.000  223.94  143.99   54.60   89.39    0.00    0.00 -99.000 -99.000 -99.000   0.299   0.043   0.007   0.008   0.004   0.002   0.002   0.001   0.002   0.003   0.183   0.045
   15 151    75  22.00  21.00   9.00 -99.000   4.309   3.839   0.474   1.105   0.630   0.474   0.000   0.000  228.25  145.10   55.23   89.86    0.00    0.00 -99.000 -99.000 -99.000   0.379   0.057   0.010   0.010   0.005   0.003   0.002   0.002   0.002   0.004   0.063   0.045
   15 152    76  21.00  26.00  11.00 -99.000   4.454   3.988   0.471   1.782   1.310   0.471   0.000   0.000  232.71  146.88   56.54   90.34    0.00    0.00 -99.000 -99.000 -99.000   0.372   0.059   0.010   0.010   0.006   0.003   0.002   0.002   0.002   0.004   0.131   0.045
   15 153    77  23.00  25.00  13.00 -99.000   4.895   4.399   0.500   2.328   1.827   0.500   0.000   0.000  237.60  149.21   58.37   90.84    0.00    0.00 -99.000 -99.000 -99.000   0.390   0.065   0.011   0.012   0.006   0.004   0.003   0.002   0.003   0.005   0.183   0.046
   15 154    78  27.00  28.00  12.00 -99.000   5.903   5.338   0.571   2.817   2.246   0.571   0.000   0.000  243.50  152.02   60.62   91.41    0.00    0.00 -99.000 -99.000 -99.000   0.439   0.078   0.014   0.014   0.007   0.005   0.003   0.002   0.003   0.006   0.225   0.046
   15 155    79  28.00  26.00  12.00 -99.000   5.969   5.437   0.538   4.686   4.148   0.538   0.000   0.000  249.47  156.71   64.76   91.95    0.00    0.00 -99.000 -99.000 -99.000   0.405   0.078   0.014   0.014   0.008   0.005   0.003   0.002   0.003   0.006   0.415   0.041
   15 156    80  28.00  28.00  15.00 -99.000   6.257   5.698   0.566   4.428   3.862   0.566   0.000   0.000  255.73  161.14   68.63   92.51    0.00    0.00 -99.000 -99.000 -99.000   0.416   0.087   0.015   0.016   0.009   0.005   0.004   0.003   0.004   0.007   0.386   0.039
   15 157    81  25.00  30.00  13.00 -99.000   5.628   5.130   0.503   4.245   3.741   0.503   0.000   0.000  261.36  165.38   72.37   93.01    0.00    0.00 -99.000 -99.000 -99.000   0.387   0.067   0.012   0.013   0.007   0.004   0.003   0.002   0.003   0.006   0.374   0.039
   15 158    82  24.00  26.00  16.00 -99.000   5.283   4.818   0.470   4.722   4.252   0.470   0.000   0.000  266.64  170.10   76.62   93.49    0.00    0.00 -99.000 -99.000 -99.000   0.376   0.054   0.009   0.010   0.005   0.003   0.002   0.002   0.002   0.005   0.425   0.050
   15 159    83   8.00  20.00  12.00 -99.000   1.580   1.446   0.136   3.209   3.073   0.136   0.000   0.000  268.22  173.31   79.69   93.62    0.00    0.00 -99.000 -99.000 -99.000   0.026   0.018   0.006   0.009   0.008   0.007   0.006   0.006   0.010   0.041   0.307   0.045
   15 160    84   6.00  13.00  11.00 -99.000   1.069   0.979   0.091   1.149   1.058   0.091   0.000   0.000  269.29  174.46   80.75   93.71    0.00    0.00 -99.000 -99.000 -99.000   0.020   0.013   0.004   0.006   0.005   0.004   0.004   0.003   0.006   0.026   0.106   0.052
   15 161    85   9.00  18.00  11.00 -99.000   1.718   1.577   0.144   0.333   0.190   0.144   0.000   0.000  271.01  174.80   80.94   93.86    0.00    0.00 -99.000 -99.000 -99.000   0.029   0.021   0.007   0.010   0.008   0.007   0.006   0.006   0.010   0.041   0.019   0.052
   15 162    86  16.00  22.00  14.00 -99.000   3.300   3.039   0.265   1.439   1.174   0.265   0.000   0.000  274.31  176.23   82.11   94.12    0.00    0.00 -99.000 -99.000 -99.000   0.051   0.039   0.013   0.018   0.014   0.012   0.011   0.010   0.019   0.077   0.117   0.053
   15 163    87  28.00  28.00  12.00 -99.000   6.113   5.628   0.491   2.858   2.367   0.491   0.000   0.000  280.42  179.09   84.48   94.61    0.00    0.00 -99.000 -99.000 -99.000   0.093   0.072   0.025   0.034   0.026   0.023   0.021   0.019   0.036   0.143   0.237   0.053
   15 164    88  20.00  25.00  14.00 -99.000   4.284   3.913   0.376   7.075   6.699   0.376   0.000   0.000  284.71  186.17   91.18   94.99    0.00    0.00 -99.000 -99.000 -99.000   0.081   0.054   0.019   0.025   0.019   0.017   0.015   0.014   0.026   0.106   0.670   0.054
   15 165    89  23.00  24.00  15.00 -99.000   4.915   4.479   0.441   4.426   3.985   0.441   0.000   0.000  289.62  190.59   95.16   95.43    0.00    0.00 -99.000 -99.000 -99.000   0.102   0.070   0.024   0.031   0.021   0.018   0.016   0.015   0.029   0.117   0.398   0.055
   15 166    90   9.00  16.00  13.00 -99.000   1.706   1.552   0.156   3.723   3.567   0.156   0.000   0.000  291.33  194.32   98.73   95.59    0.00    0.00 -99.000 -99.000 -99.000   0.035   0.026   0.009   0.013   0.008   0.006   0.005   0.005   0.010   0.039   0.357   0.056
   15 167    91  18.00  19.00  11.00 -99.000   3.491   3.170   0.326   0.829   0.503   0.326   0.000   0.000  294.82  195.14   99.23   95.91    0.00    0.00 -99.000 -99.000 -99.000   0.065   0.050   0.017   0.027   0.020   0.015   0.013   0.012   0.021   0.085   0.050   0.057
   15 168    92  21.00  19.00  10.00 -99.000   4.035   3.657   0.383   2.556   2.174   0.383   0.000   0.000  298.85  197.70  101.41   96.29    0.00    0.00 -99.000 -99.000 -99.000   0.072   0.056   0.019   0.031   0.024   0.020   0.017   0.015   0.026   0.103   0.217   0.057
   15 169    93   8.00  17.00   9.00 -99.000   1.481   1.341   0.143   2.770   2.628   0.143   0.000   0.000  300.33  200.47  104.04   96.44    0.00    0.00 -99.000 -99.000 -99.000   0.029   0.021   0.007   0.011   0.009   0.007   0.006   0.006   0.010   0.037   0.263   0.058
   15 170    94  15.00  15.00  10.00 -99.000   2.730   2.466   0.267   1.407   1.140   0.267   0.000   0.000  303.06  201.88  105.17   96.70    0.00    0.00 -99.000 -99.000 -99.000   0.054   0.039   0.013   0.020   0.016   0.014   0.012   0.010   0.018   0.071   0.114   0.059
   15 171    95  14.00  15.00   9.00 -99.000   2.522   2.275   0.250   1.246   0.995   0.250   0.000   0.000  305.59  203.12  106.17   96.95    0.00    0.00 -99.000 -99.000 -99.000   0.047   0.036   0.012   0.019   0.015   0.013   0.011   0.010   0.018   0.068   0.100   0.059
   15 172    96  14.00  17.00   9.00 -99.000   2.595   2.337   0.261   1.369   1.108   0.261   0.000   0.000  308.18  204.49  107.28   97.22    0.00    0.00 -99.000 -99.000 -99.000   0.048   0.037   0.013   0.020   0.016   0.014   0.012   0.011   0.019   0.072   0.111   0.059
   15 173    97  14.00  20.00  11.00 -99.000   2.752   2.475   0.281   1.894   1.613   0.281   0.000   0.000  310.93  206.39  108.89   97.50    0.00    0.00 -99.000 -99.000 -99.000   0.058   0.040   0.014   0.021   0.017   0.014   0.012   0.011   0.019   0.074   0.161   0.060
   15 174    98  19.00  16.00   9.00 -99.000   3.478   3.122   0.361   2.503   2.142   0.361   0.000   0.000  314.41  208.89  111.03   97.86    0.00    0.00 -99.000 -99.000 -99.000   0.078   0.052   0.019   0.027   0.021   0.018   0.016   0.014   0.024   0.093   0.214   0.060
   15 175    99  22.00  19.00   8.00 -99.000   4.161   3.728   0.438   2.075   1.638   0.438   0.000   0.000  318.57  210.97  112.67   98.29    0.00    0.00 -99.000 -99.000 -99.000   0.086   0.062   0.022   0.034   0.027   0.023   0.020   0.017   0.030   0.118   0.164   0.060
   15 176   100  22.00  21.00   6.00 -99.000   4.197   3.754   0.448   3.544   3.096   0.448   0.000   0.000  322.77  214.51  115.77   98.74    0.00    0.00 -99.000 -99.000 -99.000   0.083   0.063   0.022   0.035   0.028   0.023   0.021   0.018   0.032   0.123   0.310   0.061
   15 177   101  24.00  24.00   8.00 -99.000   4.848   4.329   0.525   4.815   4.291   0.525   0.000   0.000  327.62  219.32  120.06   99.27    0.00    0.00 -99.000 -99.000 -99.000   0.094   0.073   0.026   0.041   0.032   0.028   0.024   0.022   0.038   0.147   0.429   0.062
   15 178   102  13.00  22.00  13.00 -99.000   2.671   2.380   0.294   5.811   5.516   0.294   0.000   0.000  330.29  225.13  125.57   99.56    0.00    0.00 -99.000 -99.000 -99.000   0.239   0.033   0.006   0.006   0.003   0.002   0.001   0.001   0.001   0.002   0.552   0.062
   15 179   103  24.00  22.00  13.00 -99.000   4.931   4.383   0.553   2.803   2.250   0.553   0.000   0.000  335.22  227.94  127.82  100.11    0.00    0.00 -99.000 -99.000 -99.000   0.443   0.065   0.011   0.011   0.006   0.004   0.003   0.002   0.003   0.005   0.225   0.063
   15 180   104  23.00  25.00  12.00 -99.000   4.863   4.323   0.545   3.670   3.124   0.545   0.000   0.000  340.08  231.61  130.95  100.66    0.00    0.00 -99.000 -99.000 -99.000   0.431   0.068   0.012   0.012   0.006   0.004   0.003   0.002   0.003   0.005   0.312   0.063
   15 181   105  27.00  29.00  12.00 -99.000   5.991   5.305   0.692   5.531   4.839   0.692   0.000   0.000  346.07  237.14  135.79  101.35    0.00    0.00 -99.000 -99.000 -99.000   0.538   0.091   0.016   0.016   0.009   0.005   0.004   0.003   0.004   0.007   0.484   0.063
   15 182   106  28.00  28.00  13.00 -99.000   6.189   5.459   0.737   7.981   7.273   0.709   0.000   0.000  352.26  245.12  143.06  102.06    0.00    0.00 -99.000 -99.000 -99.000   0.537   0.101   0.017   0.018   0.010   0.006   0.004   0.003   0.004   0.008   0.727   0.055
   15 183   107  29.00  29.00  14.00 -99.000   6.537   5.739   0.804   7.261   6.649   0.611   0.000   0.000  358.80  252.38  149.71  102.67    0.00    0.00 -99.000 -99.000 -99.000   0.448   0.095   0.016   0.017   0.009   0.006   0.004   0.003   0.004   0.008   0.665   0.052
   15 184   108  23.00  31.00  14.00 -99.000   5.306   4.636   0.674   7.407   6.866   0.541   0.000   0.000  364.10  259.79  156.57  103.21    0.00    0.00 -99.000 -99.000 -99.000   0.387   0.090   0.015   0.016   0.009   0.006   0.004   0.003   0.004   0.008   0.687   0.052
   15 185   109  27.00  32.00  16.00 -99.000   6.395   5.559   0.841   7.091   6.602   0.488   0.000   0.000  370.50  266.88  163.18  103.70    0.00    0.00 -99.000 -99.000 -99.000   0.342   0.084   0.014   0.016   0.008   0.005   0.004   0.003   0.004   0.008   0.660   0.052
   15 186   110  27.00  33.00  17.00 -99.000   6.515   5.633   0.888   7.282   6.833   0.449   0.000   0.000  377.01  274.16  170.01  104.15    0.00    0.00 -99.000 -99.000 -99.000   0.310   0.080   0.013   0.015   0.008   0.005   0.004   0.003   0.004   0.008   0.683   0.046
   15 187   111  23.00  28.00  17.00 -99.000   5.253   4.515   0.743   7.062   6.648   0.414   0.000   0.000  382.27  281.22  176.66  104.56    0.00    0.00 -99.000 -99.000 -99.000   0.283   0.075   0.011   0.014   0.008   0.005   0.004   0.003   0.004   0.008   0.665   0.036
   15 188   112  26.00  33.00  16.00 -99.000   6.236   5.325   0.916   4.988   4.426   0.562   0.000   0.000  388.50  286.21  181.08  105.13    0.00    0.00 -99.000 -99.000 -99.000   0.437   0.071   0.011   0.013   0.007   0.005   0.003   0.003   0.004   0.008   0.443   0.027
   15 189   113  16.00  21.00  13.00 -99.000   3.263   2.770   0.497   6.660   6.163   0.497   0.000   0.000  391.77  292.87  187.25  105.62    0.00    0.00 -99.000 -99.000 -99.000   0.430   0.039   0.005   0.007   0.004   0.002   0.002   0.001   0.002   0.004   0.616   0.030
   15 190   114  17.00  19.00   8.00 -99.000   3.238   2.749   0.493   2.498   2.005   0.493   0.000   0.000  395.00  295.37  189.25  106.12    0.00    0.00 -99.000 -99.000 -99.000   0.112   0.052   0.014   0.029   0.024   0.021   0.019   0.019   0.038   0.167   0.200   0.030
   15 191   115  29.00  22.00   7.00 -99.000   5.699   4.836   0.870   3.228   2.358   0.870   0.000   0.000  400.70  298.60  191.61  106.99    0.00    0.00 -99.000 -99.000 -99.000   0.764   0.062   0.008   0.011   0.006   0.004   0.003   0.002   0.003   0.007   0.236   0.029
   15 192   116  26.00  28.00   8.00 -99.000   5.560   4.714   0.851   5.706   4.855   0.851   0.000   0.000  406.26  304.30  196.47  107.84    0.00    0.00 -99.000 -99.000 -99.000   0.736   0.068   0.009   0.012   0.006   0.004   0.003   0.002   0.004   0.008   0.486   0.028
   15 193   117  24.00  27.00  13.00 -99.000   5.274   4.467   0.812   7.679   6.958   0.721   0.000   0.000  411.54  311.98  203.42  108.56    0.00    0.00 -99.000 -99.000 -99.000   0.606   0.067   0.009   0.012   0.006   0.004   0.003   0.002   0.004   0.008   0.696   0.026
   15 194   118  10.00  21.00  15.00 -99.000   2.074   1.754   0.322   5.242   4.920   0.322   0.000   0.000  413.61  317.22  208.34  108.88    0.00    0.00 -99.000 -99.000 -99.000   0.265   0.033   0.005   0.006   0.003   0.002   0.001   0.001   0.002   0.004   0.492   0.013
   15 195   119  16.00  25.00  15.00 -99.000   3.487   2.942   0.548   1.692   1.144   0.548   0.000   0.000  417.10  318.92  209.49  109.43    0.00    0.00 -99.000 -99.000 -99.000   0.452   0.055   0.008   0.010   0.005   0.003   0.002   0.002   0.003   0.007   0.114   0.013
   15 196   120  23.00  27.00  16.00 -99.000   5.173   4.353   0.825   3.300   2.748   0.551   0.000   0.000  422.27  322.22  212.24  109.98    0.00    0.00 -99.000 -99.000 -99.000   0.446   0.060   0.009   0.011   0.006   0.004   0.003   0.002   0.003   0.008   0.275   0.012
[...]
   15 166    90   9.00  16.00  13.00 -99.000   1.816   1.072   0.746   2.053   1.307   0.746   0.000   0.000  300.40  163.46   33.54  129.91    0.00    0.00 -99.000 -99.000 -99.000   0.159   0.121   0.041   0.062   0.047   0.037   0.030   0.026   0.044   0.178   0.131   0.024
   15 167    91  18.00  19.00  11.00 -99.000   3.720   2.182   1.541   1.722   0.181   1.541   0.000   0.000  304.12  165.18   33.73  131.46    0.00    0.00 -99.000 -99.000 -99.000   0.301   0.232   0.080   0.127   0.101   0.082   0.068   0.058   0.100   0.393   0.018   0.025
   15 168    92  21.00  19.00  10.00 -99.000   4.287   2.498   1.792   2.662   0.870   1.792   0.000   0.000  308.40  167.84   34.60  133.25    0.00    0.00 -99.000 -99.000 -99.000   0.332   0.260   0.090   0.144   0.115   0.095   0.081   0.072   0.123   0.481   0.087   0.025
   15 169    93   8.00  17.00   9.00 -99.000   1.572   0.910   0.663   1.714   1.051   0.663   0.000   0.000  309.98  169.56   35.65  133.91    0.00    0.00 -99.000 -99.000 -99.000   0.135   0.097   0.034   0.051   0.041   0.034   0.029   0.026   0.044   0.172   0.105   0.025
   15 170    94  15.00  15.00  10.00 -99.000   2.913   1.677   1.238   1.686   0.448   1.238   0.000   0.000  312.89  171.24   36.10  135.15    0.00    0.00 -99.000 -99.000 -99.000   0.249   0.179   0.063   0.094   0.075   0.063   0.055   0.049   0.084   0.326   0.045   0.026
   15 171    95  14.00  15.00   9.00 -99.000   2.683   1.537   1.149   1.575   0.426   1.149   0.000   0.000  315.57  172.82   36.52  136.30    0.00    0.00 -99.000 -99.000 -99.000   0.216   0.163   0.057   0.089   0.071   0.060   0.053   0.047   0.080   0.313   0.043   0.026
   15 172    96  14.00  17.00   9.00 -99.000   2.757   1.571   1.188   1.672   0.483   1.188   0.000   0.000  318.33  174.49   37.00  137.49    0.00    0.00 -99.000 -99.000 -99.000   0.216   0.167   0.058   0.092   0.074   0.063   0.055   0.049   0.084   0.329   0.048   0.026
   15 173    97  14.00  20.00  11.00 -99.000   2.923   1.656   1.269   2.002   0.733   1.269   0.000   0.000  321.25  176.49   37.74  138.75    0.00    0.00 -99.000 -99.000 -99.000   0.260   0.181   0.063   0.096   0.076   0.064   0.057   0.050   0.086   0.337   0.073   0.026
   15 174    98  19.00  16.00   9.00 -99.000   3.717   2.091   1.628   2.655   1.027   1.628   0.000   0.000  324.97  179.15   38.76  140.38    0.00    0.00 -99.000 -99.000 -99.000   0.353   0.236   0.084   0.122   0.096   0.080   0.071   0.062   0.107   0.418   0.103   0.027
   15 175    99  22.00  19.00   8.00 -99.000   4.439   2.484   1.958   2.750   0.791   1.958   0.000   0.000  329.41  181.90   39.56  142.34    0.00    0.00 -99.000 -99.000 -99.000   0.381   0.278   0.099   0.150   0.119   0.101   0.089   0.079   0.135   0.526   0.079   0.027
   15 176   100  22.00  21.00   6.00 -99.000   4.467   2.485   1.985   3.475   1.489   1.985   0.000   0.000  333.87  185.37   41.05  144.33    0.00    0.00 -99.000 -99.000 -99.000   0.364   0.279   0.098   0.155   0.123   0.104   0.092   0.081   0.140   0.548   0.149   0.027
   15 177   101  24.00  24.00   8.00 -99.000   5.154   2.850   2.308   4.342   2.034   2.308   0.000   0.000  339.03  189.71   43.08  146.63    0.00    0.00 -99.000 -99.000 -99.000   0.406   0.323   0.113   0.181   0.144   0.123   0.108   0.096   0.166   0.648   0.203   0.028
   15 178   102  13.00  22.00  13.00 -99.000   2.838   1.558   1.282   3.687   2.672   1.016   0.000   0.000  341.87  193.40   45.75  147.65    0.00    0.00 -99.000 -99.000 -99.000   0.822   0.116   0.020   0.020   0.011   0.007   0.005   0.003   0.004   0.009   0.267   0.028
   15 179   103  24.00  22.00  13.00 -99.000   5.230   2.848   2.386   2.015   1.119   0.896   0.000   0.000  347.10  195.42   46.87  148.55    0.00    0.00 -99.000 -99.000 -99.000   0.706   0.113   0.020   0.020   0.011   0.007   0.004   0.003   0.004   0.009   0.112   0.029
   15 180   104  23.00  25.00  12.00 -99.000   5.151   2.805   2.350   2.534   1.720   0.814   0.000   0.000  352.25  197.95   48.59  149.36    0.00    0.00 -99.000 -99.000 -99.000   0.626   0.111   0.019   0.020   0.010   0.007   0.004   0.003   0.004   0.009   0.172   0.029
   15 181   105  27.00  29.00  12.00 -99.000   6.341   3.407   2.938   3.491   2.761   0.730   0.000   0.000  358.59  201.44   51.35  150.09    0.00    0.00 -99.000 -99.000 -99.000   0.545   0.109   0.019   0.020   0.010   0.006   0.004   0.003   0.004   0.009   0.276   0.026
   15 182   106  28.00  28.00  13.00 -99.000   6.546   3.470   3.080   4.751   4.103   0.648   0.000   0.000  365.13  206.19   55.45  150.74    0.00    0.00 -99.000 -99.000 -99.000   0.467   0.106   0.019   0.019   0.010   0.006   0.004   0.003   0.004   0.009   0.410   0.025
   15 183   107  29.00  29.00  14.00 -99.000   6.909   3.617   3.297   4.328   3.757   0.571   0.000   0.000  372.04  210.52   59.21  151.31    0.00    0.00 -99.000 -99.000 -99.000   0.397   0.101   0.018   0.019   0.010   0.006   0.004   0.003   0.004   0.008   0.376   0.025
   15 184   108  23.00  31.00  14.00 -99.000   5.605   2.902   2.706   4.450   3.933   0.518   0.000   0.000  377.65  214.97   63.14  151.83    0.00    0.00 -99.000 -99.000 -99.000   0.349   0.097   0.017   0.018   0.010   0.006   0.004   0.003   0.004   0.008   0.393   0.025
   15 185   109  27.00  32.00  16.00 -99.000   6.754   3.457   3.301   4.245   3.767   0.478   0.000   0.000  384.40  219.22   66.91  152.30    0.00    0.00 -99.000 -99.000 -99.000   0.315   0.092   0.017   0.018   0.010   0.006   0.004   0.003   0.004   0.008   0.377   0.025
   15 186   110  27.00  33.00  17.00 -99.000   6.880   3.479   3.405   4.317   3.874   0.444   0.000   0.000  391.28  223.53   70.79  152.75    0.00    0.00 -99.000 -99.000 -99.000   0.287   0.088   0.016   0.017   0.009   0.006   0.004   0.003   0.004   0.008   0.387   0.026
   15 187   111  23.00  28.00  17.00 -99.000   5.547   2.768   2.781   4.154   3.743   0.412   0.000   0.000  396.83  227.69   74.53  153.16    0.00    0.00 -99.000 -99.000 -99.000   0.261   0.083   0.016   0.017   0.009   0.006   0.004   0.003   0.004   0.008   0.374   0.026
   15 188   112  26.00  33.00  16.00 -99.000   6.584   3.236   3.351   3.032   2.471   0.562   0.000   0.000  403.41  230.72   77.00  153.72    0.00    0.00 -99.000 -99.000 -99.000   0.417   0.079   0.015   0.016   0.009   0.006   0.004   0.003   0.004   0.008   0.247   0.024
   15 189   113  16.00  21.00  13.00 -99.000   3.466   1.681   1.787   4.329   3.399   0.930   0.000   0.000  406.88  235.05   80.40  154.65    0.00    0.00 -99.000 -99.000 -99.000   0.787   0.079   0.015   0.016   0.009   0.006   0.004   0.003   0.004   0.008   0.340   0.025
   15 190   114  17.00  19.00   8.00 -99.000   3.460   1.678   1.784   2.130   1.084   1.046   0.000   0.000  410.34  237.18   81.48  155.70    0.00    0.00 -99.000 -99.000 -99.000   0.904   0.079   0.014   0.016   0.008   0.006   0.004   0.003   0.004   0.008   0.108   0.028
   15 191   115  29.00  22.00   7.00 -99.000   6.078   2.946   3.136   2.217   1.269   0.947   0.000   0.000  416.42  239.39   82.75  156.64    0.00    0.00 -99.000 -99.000 -99.000   0.807   0.077   0.014   0.016   0.008   0.005   0.004   0.003   0.004   0.008   0.127   0.028
   15 192   116  26.00  28.00   8.00 -99.000   5.921   2.866   3.059   3.456   2.602   0.854   0.000   0.000  422.34  242.85   85.35  157.50    0.00    0.00 -99.000 -99.000 -99.000   0.717   0.076   0.014   0.015   0.008   0.005   0.004   0.003   0.004   0.008   0.260   0.027
   15 193   117  24.00  27.00  13.00 -99.000   5.609   2.709   2.902   4.457   3.707   0.750   0.000   0.000  427.95  247.31   89.06  158.25    0.00    0.00 -99.000 -99.000 -99.000   0.615   0.074   0.013   0.015   0.008   0.005   0.004   0.003   0.004   0.008   0.371   0.026
   15 194   118  10.00  21.00  15.00 -99.000   2.202   1.060   1.143   3.286   2.603   0.683   0.000   0.000  430.15  250.59   91.66  158.93    0.00    0.00 -99.000 -99.000 -99.000   0.553   0.071   0.013   0.015   0.008   0.005   0.004   0.003   0.004   0.008   0.260   0.021
   15 195   119  16.00  25.00  15.00 -99.000   3.703   1.774   1.931   1.251   0.600   0.651   0.000   0.000  433.85  251.84   92.26  159.58    0.00    0.00 -99.000 -99.000 -99.000   0.524   0.069   0.012   0.014   0.008   0.005   0.004   0.003   0.004   0.008   0.060   0.020
   15 196   120  23.00  27.00  16.00 -99.000   5.489   2.616   2.876   2.025   1.429   0.597   0.000   0.000  439.34  253.87   93.69  160.18    0.00    0.00 -99.000 -99.000 -99.000   0.470   0.068   0.012   0.014   0.008   0.005   0.004   0.003   0.004   0.008   0.143   0.019
   15 197   121  26.00  31.00  13.00 -99.000   6.344   3.001   3.346   2.571   2.029   0.542   0.000   0.000  445.69  256.44   95.72  160.72    0.00    0.00 -99.000 -99.000 -99.000   0.417   0.067   0.012   0.014   0.008   0.005   0.004   0.003   0.004   0.008   0.203   0.018
   15 198   122  23.00  33.00  15.00 -99.000   5.822   2.728   3.096   3.882   3.390   0.492   0.000   0.000  451.51  260.32   99.11  161.21    0.00    0.00 -99.000 -99.000 -99.000   0.370   0.065   0.012   0.014   0.008   0.005   0.004   0.003   0.004   0.008   0.339   0.017
   15 199   123  16.00  29.00  14.00 -99.000   3.842   1.781   2.063   3.490   3.042   0.448   0.000   0.000  455.35  263.81  102.15  161.66    0.00    0.00 -99.000 -99.000 -99.000   0.330   0.063   0.011   0.013   0.007   0.005   0.004   0.003   0.004   0.008   0.304   0.015
   15 200   124  16.00  28.00  16.00 -99.000   3.858   1.763   2.098   2.487   2.072   0.415   0.000   0.000  459.21  266.30  104.22  162.08    0.00    0.00 -99.000 -99.000 -99.000   0.301   0.061   0.011   0.013   0.007   0.005   0.004   0.003   0.004   0.008   0.207   0.015
   15 201   125  19.00  28.00  18.00 -99.000   4.653   2.095   2.560   2.082   1.696   0.386   0.000   0.000  463.86  268.38  105.92  162.46    0.00    0.00 -99.000 -99.000 -99.000   0.274   0.059   0.010   0.013   0.007   0.005   0.004   0.003   0.004   0.008   0.170   0.014
   15 202   126  26.00  32.00  16.00 -99.000   6.563   2.906   3.660   1.967   1.607   0.360   0.000   0.000  470.43  270.35  107.53  162.82    0.00    0.00 -99.000 -99.000 -99.000   0.249   0.058   0.010   0.012   0.007   0.005   0.003   0.003   0.004   0.008   0.161   0.013
   15 203   127  25.00  34.00  15.00 -99.000   6.408   2.781   3.630   3.190   2.854   0.336   0.000   0.000  476.83  273.54  110.38  163.16    0.00    0.00 -99.000 -99.000 -99.000   0.227   0.057   0.010   0.012   0.007   0.005   0.003   0.003   0.004   0.008   0.285   0.012
   15 204   128  12.00  24.00  18.00 -99.000   2.812   1.193   1.621   3.365   3.008   0.357   0.000   0.000  479.65  276.90  113.39  163.51    0.00    0.00 -99.000 -99.000 -99.000   0.251   0.056   0.010   0.012   0.007   0.005   0.003   0.003   0.004   0.008   0.301   0.012
   15 205   129  21.00  29.00  14.00 -99.000   5.079   2.074   3.007   1.013   0.636   0.377   0.000   0.000  484.72  277.92  114.02  163.89    0.00    0.00 -99.000 -99.000 -99.000   0.274   0.055   0.009   0.011   0.006   0.005   0.003   0.002   0.004   0.008   0.064   0.011
   15 206   130  21.00  25.00  12.00 -99.000   4.771   1.897   2.877   2.430   2.078   0.352   0.000   0.000  489.50  280.35  116.10  164.24    0.00    0.00 -99.000 -99.000 -99.000   0.249   0.054   0.009   0.011   0.006   0.004   0.003   0.002   0.004   0.008   0.208   0.011
   15 207   131  26.00  23.00   8.00 -99.000   5.575   2.150   3.427   1.950   1.622   0.328   0.000   0.000  495.07  282.30  117.72  164.57    0.00    0.00 -99.000 -99.000 -99.000   0.227   0.053   0.009   0.011   0.006   0.004   0.003   0.002   0.004   0.008   0.162   0.010
   15 208   132  19.00  23.00  12.00 -99.000   4.220   1.581   2.641   2.251   1.810   0.441   0.000   0.000  499.29  284.55  119.53  165.01    0.00    0.00 -99.000 -99.000 -99.000   0.341   0.052   0.009   0.011   0.006   0.004   0.003   0.002   0.004   0.008   0.181   0.010
   15 209   133  17.00  22.00  12.00 -99.000   3.761   1.371   2.391   1.731   1.143   0.588   0.000   0.000  503.05  286.28  120.68  165.60    0.00    0.00 -99.000 -99.000 -99.000   0.490   0.052   0.009   0.011   0.006   0.004   0.003   0.002   0.004   0.008   0.114   0.009
   15 210   134  12.00  20.00   9.00 -99.000   2.527   0.891   1.637   1.527   0.905   0.623   0.000   0.000  505.58  287.81  121.58  166.22    0.00    0.00 -99.000 -99.000 -99.000   0.525   0.051   0.009   0.011   0.006   0.004   0.003   0.002   0.004   0.008   0.090   0.009
   15 211   135  21.00  21.00   7.00 -99.000   4.416   1.503   2.914   1.279   0.670   0.609   0.000   0.000  509.99  289.08  122.25  166.83    0.00    0.00 -99.000 -99.000 -99.000   0.512   0.051   0.009   0.011   0.006   0.004   0.003   0.002   0.004   0.008   0.067   0.009
   15 212   136  25.00  23.00   9.00 -99.000   5.494   1.810   3.687   1.694   1.142   0.553   0.000   0.000  515.49  290.78  123.39  167.38    0.00    0.00 -99.000 -99.000 -99.000   0.456   0.050   0.008   0.010   0.006   0.004   0.003   0.002   0.004   0.008   0.114   0.008
   15 213   137  10.00  20.00  13.00 -99.000   2.188   0.696   1.493   1.853   1.354   0.499   0.000   0.000  517.68  292.63  124.75  167.88    0.00    0.00 -99.000 -99.000 -99.000   0.403   0.050   0.008   0.010   0.006   0.004   0.003   0.002   0.004   0.008   0.135   0.008
   15 214   138  19.00  25.00  12.00 -99.000   4.395   1.339   3.058   0.818   0.365   0.453   0.000   0.000  522.07  293.45  125.11  168.34    0.00    0.00 -99.000 -99.000 -99.000   0.358   0.049   0.008   0.010   0.006   0.004   0.003   0.002   0.004   0.008   0.037   0.007
   15 215   139  26.00  28.00  11.00 -99.000   6.194   1.795   4.401   1.462   1.042   0.420   0.000   0.000  528.27  294.91  126.16  168.76    0.00    0.00 -99.000 -99.000 -99.000   0.326   0.049   0.008   0.010   0.006   0.004   0.003   0.002   0.004   0.008   0.104   0.007
   15 216   140  21.00  31.00  12.00 -99.000   5.231   1.424   3.809   1.953   1.563   0.390   0.000   0.000  533.50  296.86  127.72  169.15    0.00    0.00 -99.000 -99.000 -99.000   0.296   0.049   0.008   0.010   0.006   0.004   0.003   0.002   0.003   0.008   0.156   0.007
   15 217   141  24.00  29.00  13.00 -99.000   5.900   1.490   4.411   1.776   1.413   0.362   0.000   0.000  539.40  298.64  129.13  169.51    0.00    0.00 -99.000 -99.000 -99.000   0.270   0.048   0.008   0.010   0.006   0.004   0.003   0.002   0.003   0.008   0.141   0.007
   15 218   142  25.00  33.00  13.00 -99.000   6.448   1.483   4.967   1.519   1.182   0.338   0.000   0.000  545.84  300.16  130.31  169.85    0.00    0.00 -99.000 -99.000 -99.000   0.246   0.048   0.008   0.010   0.005   0.004   0.003   0.002   0.003   0.008   0.118   0.007
   15 219   143  25.00  35.00  14.00 -99.000   6.658   1.370   5.289   1.599   1.284   0.315   0.000   0.000  552.50  301.76  131.60  170.16    0.00    0.00 -99.000 -99.000 -99.000   0.224   0.048   0.008   0.010   0.005   0.004   0.003   0.002   0.003   0.008   0.128   0.006
   15 220   144  22.00  34.00  15.00 -99.000   5.873   0.948   4.926   1.321   0.982   0.339   0.000   0.000  558.38  303.08  132.58  170.50    0.00    0.00 -99.000 -99.000 -99.000   0.248   0.047   0.008   0.010   0.005   0.004   0.003   0.002   0.003   0.008   0.098   0.006
   15 221   145  22.00  33.00  16.00 -99.000   5.932   0.537   5.396   0.828   0.467   0.361   0.000   0.000  564.31  303.91  133.05  170.86    0.00    0.00 -99.000 -99.000 -99.000   0.271   0.047   0.008   0.010   0.005   0.004   0.003   0.002   0.003   0.008   0.047   0.006
   15 222   146  18.00  30.00  17.00 -99.000   4.779   0.081   4.698   0.415   0.079   0.336   0.000   0.000  569.09  304.32  133.12  171.20    0.00    0.00 -99.000 -99.000 -99.000   0.247   0.047   0.008   0.010   0.005   0.004   0.003   0.002   0.003   0.008   0.008   0.006
   15 223   147  19.00  31.00  16.00 -99.000   5.070   0.000   5.070   0.326   0.012   0.314   0.000   0.000  574.16  304.65  133.14  171.51    0.00    0.00 -99.000 -99.000 -99.000   0.225   0.046   0.008   0.010   0.005   0.004   0.003   0.002   0.003   0.008   0.001   0.000
   15 224   148  21.00  33.00  14.00 -99.000   5.640   0.000   5.640   0.307   0.014   0.293   0.000   0.000  579.80  304.95  133.15  171.80    0.00    0.00 -99.000 -99.000 -99.000   0.204   0.046   0.008   0.010   0.005   0.004   0.003   0.002   0.003   0.008   0.001   0.000
   15 225   149  21.00  33.00  14.00 -99.000   5.635   0.000   5.635   0.293   0.018   0.275   0.000   0.000  585.43  305.25  133.17  172.08    0.00    0.00 -99.000 -99.000 -99.000   0.186   0.046   0.008   0.010   0.005   0.004   0.003   0.002   0.003   0.008   0.002   0.000
   15 226   150  19.00  32.00  17.00 -99.000   5.151   0.000   5.151   0.455   0.018   0.437   0.000   0.000  590.58  305.70  133.19  172.52    0.00    0.00 -99.000 -99.000 -99.000   0.349   0.046   0.008   0.010   0.005   0.004   0.003   0.002   0.003   0.008   0.002   0.000
   15 227   151  15.00  25.00  15.00 -99.000   3.754   0.000   3.754   0.603   0.018   0.585   0.000   0.000  594.34  306.31  133.20  173.10    0.00    0.00 -99.000 -99.000 -99.000   0.497   0.045   0.008   0.010   0.005   0.004   0.003   0.002   0.003   0.008   0.002   0.000
   15 228   152   6.00  18.00  14.00 -99.000   1.361   0.000   1.361   0.811   0.018   0.793   0.000   0.000  595.70  307.12  133.22  173.89    0.00    0.00 -99.000 -99.000 -99.000   0.704   0.046   0.008   0.010   0.005   0.004   0.003   0.002   0.003   0.008   0.002   0.000
   15 229   153   6.00  15.00  12.00 -99.000   1.309   0.000   1.309   1.327   0.018   1.309   0.000   0.000  597.01  308.44  133.24  175.20    0.00    0.00 -99.000 -99.000 -99.000   0.344   0.107   0.034   0.063   0.053   0.051   0.051   0.049   0.098   0.460   0.002   0.000
   15 230   154  17.00  21.00  11.00 -99.000   4.019   0.000   4.019   4.037   0.018   4.019   0.000   0.000  601.03  312.48  133.26  179.22    0.00    0.00 -99.000 -99.000 -99.000   1.043   0.368   0.102   0.190   0.161   0.154   0.156   0.148   0.298   1.401   0.002   0.000
   15 231   155  10.00  20.00  13.00 -99.000   2.356   0.000   2.356   1.015   0.018   0.998   0.000   0.000  603.38  313.50  133.28  180.22    0.00    0.00 -99.000 -99.000 -99.000   0.897   0.059   0.008   0.009   0.005   0.004   0.003   0.002   0.003   0.008   0.002   0.000
   15 232   156  11.00  20.00  12.00 -99.000   2.560   0.000   2.560   0.935   0.018   0.917   0.000   0.000  605.94  314.43  133.29  181.14    0.00    0.00 -99.000 -99.000 -99.000   0.816   0.059   0.008   0.009   0.005   0.004   0.003   0.002   0.003   0.008   0.002   0.000
   15 233   157  16.00  21.00   9.00 -99.000   3.662   0.000   3.662   0.861   0.018   0.843   0.000   0.000  609.61  315.29  133.31  181.98    0.00    0.00 -99.000 -99.000 -99.000   0.743   0.058   0.008   0.009   0.005   0.004   0.003   0.002   0.003   0.008   0.002   0.000
   15 234   158  21.00  24.00   8.00 -99.000   4.940   0.000   4.940   0.794   0.018   0.776   0.000   0.000  614.55  316.09  133.33  182.76    0.00    0.00 -99.000 -99.000 -99.000   0.677   0.058   0.008   0.009   0.005   0.004   0.003   0.002   0.003   0.008   0.002   0.000
   15 235   159  20.00  27.00  11.00 -99.000   4.994   0.000   4.994   0.823   0.018   0.805   0.000   0.000  619.54  316.91  133.35  183.56    0.00    0.00 -99.000 -99.000 -99.000   0.706   0.058   0.008   0.009   0.005   0.004   0.003   0.002   0.003   0.008   0.002   0.000
   15 236   160  16.00  28.00  14.00 -99.000   4.162   0.000   4.162   4.180   0.018   4.162   0.000   0.000  623.70  321.09  133.36  187.72    0.00    0.00 -99.000 -99.000 -99.000   1.043   0.575   0.117   0.181   0.154   0.149   0.150   0.143   0.288   1.361   0.002   0.000
   15 237   161  20.00  21.00   8.00 -99.000   4.633   0.000   4.633   4.651   0.018   4.633   0.000   0.000  628.33  325.74  133.38  192.36    0.00    0.00 -99.000 -99.000 -99.000   1.225   0.802   0.159   0.181   0.155   0.149   0.151   0.144   0.291   1.377   0.002   0.000
