*GHG emissions output file

*DSSAT Cropping System Model Ver. 4.8.5.000 -release  NOV 27, 2025 15:48:13

*RUN   1        : 1                         WHAPS048 TUDU1501    1
 MODEL          : WHAPS048 - Wheat
 EXPERIMENT     : TUDU1501 WH
 DATA PATH      :
 TREATMENT  1   : 1                         WHAPS048
  
!               |---------- Daily (g/ha) ----------|------- Cumulative (kg/ha) --------|---- Cum CO2-equiv kg[CO2eq]/ha ---|
!               Soil CO2  Net CO2      N2O      CH4 Soil CO2  Net CO2      N2O      CH4  Net CO2      N2O      CH4    Total
!                g[C]/ha  g[C]/ha  g[N]/ha  g[C]/ha kg[C]/ha kg[C]/ha kg[N]/ha kg[C]/ha    CO2eq    CO2eq    CO2eq    CO2eq
@YEAR DOY   DAS   CO2GED   CO2END   N2OGED   CH4GED    CO2EC   CO2ENC    N2OEC    CH4EC    CCEQC    NCEQC    MCEQC    TCEQC
   15 077     1    12360     1656     0.01     0.00       12        2     0.00     0.00        6        0        0        6
   15 078     2    10520     1563     0.01     0.00       23        3     0.00     0.00       12        0        0       12
   15 079     3     8247     1344     0.01     0.00       31        5     0.00     0.00       17        0        0       17
   15 080     4     5896     1031     0.02     0.00       37        6     0.00     0.00       21        0        0       21
   15 081     5     3784      688     0.02     0.00       41        6     0.00     0.00       23        0        0       23
   15 082     6      820      250     0.02     0.00       42        7     0.00     0.00       24        0        0       24
   15 083     7      130        0     0.02     0.00       42        7     0.00     0.00       24        0        0       24
   15 084     8      146       94     0.03     0.00       42        7     0.00     0.00       24        0        0       24
   15 085     9      675      250     0.03     0.00       43        7     0.00     0.00       25        0        0       25
   15 086    10      786      219     0.03     0.00       43        7     0.00     0.00       26        0        0       26
   15 087    11     1747      406     0.03     0.00       45        8     0.00     0.00       28        0        0       28
   15 088    12     2845      656     0.04     0.00       48        8     0.00     0.00       30        0        0       30
   15 089    13     3816      813     0.04     0.00       52        9     0.00     0.00       33        0        0       33
   15 090    14     3348      531     0.03     0.00       55       10     0.00     0.00       35        0        0       35
   15 091    15     3989      656     0.03     0.00       59       10     0.00     0.00       37        0        0       37
   15 092    16     2686      469     0.03     0.00       62       11     0.00     0.00       39        0        0       39
   15 093    17     1332      281     0.02     0.00       63       11     0.00     0.00       40        0        0       40
   15 094    18       74        0     0.04     0.00       63       11     0.00     0.00       40        0        0       40
   15 095    19       14       31     0.03     0.00       63       11     0.00     0.00       40        0        0       40
   15 096    20        0        0     0.05     0.00       63       11     0.00     0.00       40        0        0       40
   15 097    21        0        0     0.06     0.00       63       11     0.00     0.00       40        0        0       40
   15 098    22        0        0     0.06     0.00       63       11     0.00     0.00       40        0        0       40
   15 099    23        0        0     0.31     0.00       63       11     0.00     0.00       40        0        0       41
   15 100    24       73       31     0.62     0.00       63       11     0.00     0.00       40        1        0       41
   15 101    25     3160      563     0.95     0.00       66       12     0.00     0.00       42        1        0       44
   15 102    26     6984     1188     1.30     0.00       73       13     0.00     0.00       47        2        0       48
   15 103    27    10184     1813     1.64     0.00       84       15     0.01     0.00       53        3        0       56
   15 104    28    11799     2219     1.91     0.00       95       17     0.01     0.00       61        3        0       65
   15 105    29    11964     2375     2.04     0.00      107       19     0.01     0.00       70        4        0       75
   15 106    30    12642     2719     2.08     0.00      120       22     0.01     0.00       80        5        0       86
   15 107    31    13362     3063     2.05     0.00      133       25     0.01     0.00       91        6        0       98
   15 108    32    15722     2625     0.59     0.00      149       28     0.01     0.00      101        7        0      108
   15 109    33    13841     2000     1.34     0.00      163       30     0.02     0.00      108        7        0      116
   15 110    34    11574     1594     1.79     0.00      175       31     0.02     0.00      114        8        0      122
   15 111    35     8559     1344     1.63     0.00      183       32     0.02     0.00      119        9        0      128
   15 112    36     6175     1031     1.47     0.00      189       34     0.02     0.00      123       10        0      132
   15 113    37     5932     1125     1.33     0.00      195       35     0.02     0.00      127       10        0      137
   15 114    38     6069     1250     1.20     0.00      201       36     0.02     0.00      132       11        0      142
   15 115    39     7011     1469     1.09     0.00      208       37     0.02     0.00      137       11        0      148
   15 116    40     7989     1781     0.96     0.00      216       39     0.02     0.00      144       12        0      155
   15 117    41     9666     2219     0.85     0.00      226       41     0.03     0.00      152       12        0      164
   15 118    42    11879     2344     0.71     0.00      238       44     0.03     0.00      160       12        0      173
   15 119    43    12925     2500     0.37     0.00      251       46     0.03     0.00      170       13        0      182
   15 120    44    12177     2188     0.54     0.00      263       48     0.03     0.00      178       13        0      190
   15 121    45    11683     2156     0.52     0.00      275       51     0.03     0.00      185       13        0      199
   15 122    46     7786     1938     0.17     0.00      282       52     0.03     0.00      193       13        0      206
   15 123    47     6517     1563     0.24     0.00      289       54     0.03     0.00      198       13        0      212
   15 124    48     7723     2094     0.15     0.00      297       56     0.03     0.00      206       13        0      219
   15 125    49    11907     2844     0.28     0.00      309       59     0.03     0.00      216       13        0      230
   15 126    50    14656     3719     0.23     0.00      323       63     0.03     0.00      230       14        0      244
   15 127    51    14209     4281     0.13     0.00      337       67     0.03     0.00      246       14        0      259
   15 128    52    16093     4438     0.24     0.00      353       71     0.03     0.00      262       14        0      276
   15 129    53    17042     4531     0.29     0.00      371       76     0.03     0.00      279       14        0      293
   15 130    54    15279     4344     0.22     0.00      386       80     0.03     0.00      295       14        0      309
   15 131    55    13161     3969     0.27     0.00      399       84     0.03     0.00      309       14        0      323
   15 132    56    13240     4313     0.27     0.00      412       89     0.03     0.00      325       14        0      339
   15 133    57    14184     4938     0.27     0.00      426       94     0.03     0.00      343       14        0      358
   15 134    58    15147     5094     0.23     0.00      442       99     0.03     0.00      362       14        0      376
   15 135    59    14717     5375     0.29     0.00      456      104     0.03     0.00      382       15        0      396
   15 136    60    13905     5219     0.29     0.00      470      109     0.03     0.00      401       15        0      415
   15 137    61    13481     5125     0.30     0.00      484      114     0.03     0.00      420       15        0      434
   15 138    62    12401     4750     0.31     0.00      496      119     0.03     0.00      437       15        0      452
   15 139    63    11331     4406     0.32     0.00      507      123     0.03     0.00      453       15        0      468
   15 140    64    11880     4281     0.12     0.00      519      128     0.03     0.00      469       15        0      484
   15 141    65    10471     4156     0.11     0.00      530      132     0.03     0.00      484       15        0      499
   15 142    66    10045     3750     0.17     0.00      540      136     0.03     0.00      498       15        0      513
   15 143    67     9307     3344     0.26     0.00      549      139     0.03     0.00      510       15        0      526
   15 144    68     8017     2875     0.21     0.00      557      142     0.03     0.00      521       16        0      536
   15 145    69     7458     2688     0.26     0.00      565      145     0.03     0.00      531       16        0      546
   15 146    70     8989     3438     0.33     0.00      574      148     0.03     0.00      543       16        0      559
   15 147    71     9502     3656     0.37     0.00      583      152     0.03     0.00      557       16        0      573
   15 148    72     9353     3563     0.37     0.00      592      155     0.03     0.00      570       16        0      586
   15 149    73     9478     3719     0.37     0.00      602      159     0.03     0.00      583       16        0      600
   15 150    74    10314     4125     0.37     0.00      612      163     0.04     0.00      598       17        0      615
   15 151    75    10433     4219     0.37     0.00      623      167     0.04     0.00      614       17        0      631
   15 152    76    11211     4688     0.37     0.00      634      172     0.04     0.00      631       17        0      648
   15 153    77    13626     5625     1.42     0.00      647      178     0.04     0.00      652       18        0      669
   15 154    78    15055     6500     2.21     0.00      663      184     0.04     0.00      676       19        0      694
   15 155    79    15760     7156     2.69     0.00      678      191     0.04     0.00      702       20        0      722
   15 156    80    16160     7781     2.96     0.00      694      199     0.05     0.00      730       21        0      752
   15 157    81    16861     8438     3.02     0.00      711      207     0.05     0.00      761       23        0      784
   15 158    82    18179     8813     2.66     0.00      729      216     0.05     0.00      794       24        0      818
   15 159    83    17606     8938     2.47     0.00      747      225     0.05     0.00      827       25        0      852
   15 160    84    19542     8406     0.71     0.00      767      234     0.05     0.00      857       25        0      883
   15 161    85    18012     7563     1.30     0.00      785      241     0.06     0.00      885       26        0      911
   15 162    86    16125     6781     1.50     0.00      801      248     0.06     0.00      910       27        0      937
   15 163    87    15024     6469     1.54     0.00      816      254     0.06     0.00      934       27        0      961
   15 164    88    14271     6500     1.35     0.00      830      261     0.06     0.00      958       28        0      986
   15 165    89    14698     6906     0.55     0.00      845      268     0.06     0.00      983       28        0     1011
   15 166    90    15669     8000     0.44     0.00      860      276     0.06     0.00     1012       29        0     1041
   15 167    91    15689     8156     0.40     0.00      876      284     0.06     0.00     1042       29        0     1071
   15 168    92    15814     7688     0.65     0.00      892      292     0.06     0.00     1070       29        0     1100
   15 169    93    14684     7031     0.81     0.00      907      299     0.06     0.00     1096       29        0     1126
   15 170    94    12461     6375     0.28     0.00      919      305     0.06     0.00     1120       30        0     1149
   15 171    95    11113     5531     0.51     0.00      930      311     0.06     0.00     1140       30        0     1170
   15 172    96    10631     5250     0.61     0.00      941      316     0.06     0.00     1159       30        0     1189
   15 173    97    10172     5094     0.63     0.00      951      321     0.06     0.00     1178       30        0     1208
   15 174    98     9923     5250     0.20     0.00      961      326     0.07     0.00     1197       30        0     1228
   15 175    99     9869     5250     0.27     0.00      971      331     0.07     0.00     1216       31        0     1247
   15 176   100    10335     5313     0.43     0.00      981      337     0.07     0.00     1236       31        0     1267
   15 177   101    10789     5563     0.52     0.00      992      342     0.07     0.00     1256       31        0     1287
   15 178   102    11244     6000     0.47     0.00     1003      348     0.07     0.00     1278       31        0     1310
   15 179   103    11316     6344     0.43     0.00     1014      355     0.07     0.00     1302       31        0     1333
   15 180   104    12112     6969     0.40     0.00     1027      362     0.07     0.00     1327       32        0     1359
   15 181   105    12799     7625     0.38     0.00     1039      369     0.07     0.00     1355       32        0     1387
   15 182   106    13664     8438     0.37     0.00     1053      378     0.07     0.00     1386       32        0     1418
   15 183   107    13661     8813     0.36     0.00     1067      387     0.07     0.00     1419       32        0     1451
   15 184   108    13541     9031     1.93     0.00     1080      396     0.07     0.00     1452       33        0     1485
   15 185   109    13504     9250     2.91     0.00     1094      405     0.07     0.00     1486       34        0     1520
   15 186   110    13469     9438     3.42     0.00     1107      414     0.08     0.00     1520       36        0     1556
   15 187   111    13184     9469     3.49     0.00     1120      424     0.08     0.00     1555       38        0     1593
   15 188   112    12549     9344     3.02     0.00     1133      433     0.08     0.00     1589       39        0     1628
   15 189   113    13765     9469     2.34     0.00     1147      443     0.09     0.00     1624       40        0     1664
   15 190   114    13821     8813     1.91     0.00     1161      451     0.09     0.00     1656       41        0     1697
   15 191   115    11926     7688     1.69     0.00     1172      459     0.09     0.00     1685       42        0     1726
   15 192   116     9980     6781     1.45     0.00     1182      466     0.09     0.00     1710       43        0     1752
   15 193   117     8698     6156     1.27     0.00     1191      472     0.09     0.00     1732       43        0     1775
   15 194   118     7349     5469     1.13     0.00     1198      477     0.09     0.00     1752       44        0     1796
   15 195   119     7210     5375     0.96     0.00     1206      483     0.09     0.00     1772       44        0     1816
   15 196   120     7650     5750     0.85     0.00     1213      489     0.10     0.00     1793       44        0     1838
   15 197   121     7979     6219     0.76     0.00     1221      495     0.10     0.00     1816       45        0     1861
   15 198   122     7904     6281     0.68     0.00     1229      501     0.10     0.00     1839       45        0     1884
   15 199   123     7655     6250     0.61     0.00     1237      507     0.10     0.00     1862       45        0     1907
   15 200   124     7404     6125     0.55     0.00     1244      513     0.10     0.00     1884       46        0     1930
   15 201   125     7157     6156     0.50     0.00     1251      520     0.10     0.00     1907       46        0     1953
   15 202   126     6938     6000     0.46     0.00     1258      526     0.10     0.00     1929       46        0     1975
   15 203   127     6771     6000     0.43     0.00     1265      532     0.10     0.00     1951       46        0     1997
   15 204   128     6391     5781     0.40     0.00     1272      537     0.10     0.00     1972       47        0     2019
   15 205   129     6250     5500     0.37     0.00     1278      543     0.10     0.00     1992       47        0     2039
   15 206   130     6049     5469     0.35     0.00     1284      548     0.10     0.00     2012       47        0     2059
   15 207   131     5538     5094     0.34     0.00     1289      553     0.10     0.00     2031       47        0     2078
   15 208   132     4861     4469     0.33     0.00     1294      558     0.10     0.00     2048       47        0     2095
   15 209   133     5032     4156     0.29     0.00     1299      562     0.10     0.00     2063       47        0     2110
   15 210   134     4663     3969     0.30     0.00     1304      566     0.10     0.00     2077       47        0     2125
   15 211   135     4246     3625     0.30     0.00     1308      570     0.10     0.00     2091       48        0     2138
   15 212   136     3797     3406     0.30     0.00     1312      573     0.10     0.00     2103       48        0     2151
   15 213   137     3766     3313     0.30     0.00     1316      576     0.10     0.00     2115       48        0     2163
   15 214   138     3658     3375     0.30     0.00     1319      580     0.10     0.00     2128       48        0     2176
   15 215   139     3699     3375     0.30     0.00     1323      583     0.10     0.00     2140       48        0     2188
   15 216   140     3929     3656     0.30     0.00     1327      587     0.10     0.00     2153       48        0     2202
   15 217   141     4284     3969     0.30     0.00     1331      591     0.10     0.00     2168       48        0     2217
   15 218   142     4507     4281     0.30     0.00     1336      595     0.10     0.00     2184       49        0     2232
   15 219   143     4856     4594     0.30     0.00     1341      600     0.10     0.00     2201       49        0     2249
   15 220   144     5173     4906     0.30     0.00     1346      605     0.10     0.00     2219       49        0     2268
   15 221   145     5573     5125     0.29     0.00     1351      610     0.10     0.00     2237       49        0     2286
   15 222   146     5668     5313     0.29     0.00     1357      615     0.11     0.00     2257       49        0     2306
   15 223   147     5730     5375     0.29     0.00     1363      620     0.11     0.00     2277       49        0     2326
   15 224   148     5738     5531     0.30     0.00     1369      626     0.11     0.00     2297       49        0     2346
   15 225   149     5684     5344     0.30     0.00     1374      631     0.11     0.00     2317       50        0     2366
   15 226   150     5633     5375     0.30     0.00     1380      637     0.11     0.00     2336       50        0     2386
   15 227   151     6679     5563     0.26     0.00     1387      642     0.11     0.00     2357       50        0     2407
   15 228   152     6342     5469     0.28     0.00     1393      648     0.11     0.00     2377       50        0     2427
   15 229   153     7114     5156     0.26     0.00     1400      653     0.11     0.00     2396       50        0     2446
   15 230   154     6485     4781     0.18     0.00     1406      658     0.11     0.00     2413       50        0     2463
   15 231   155     6058     4375     0.29     0.00     1413      662     0.11     0.00     2429       50        0     2480
   15 232   156     5275     3969     0.30     0.00     1418      666     0.11     0.00     2444       50        0     2494
   15 233   157     4864     3719     0.30     0.00     1423      670     0.11     0.00     2458       51        0     2508
   15 234   158     4656     3688     0.31     0.00     1427      673     0.11     0.00     2471       51        0     2522
   15 235   159     4711     3813     0.31     0.00     1432      677     0.11     0.00     2485       51        0     2536
   15 236   160     5142     4000     0.31     0.00     1437      681     0.11     0.00     2500       51        0     2551
   15 237   161     8160     4719     0.14     0.00     1445      686     0.11     0.00     2517       51        0     2568

*DSSAT Cropping System Model Ver. 4.8.5.000 -release  NOV 27, 2025 15:48:13

*RUN   2        : 2                         WHAPS048 TUDU1501    2
 MODEL          : WHAPS048 - Wheat
 EXPERIMENT     : TUDU1501 WH
 DATA PATH      :
 TREATMENT  2   : 2                         WHAPS048
  
!               |---------- Daily (g/ha) ----------|------- Cumulative (kg/ha) --------|---- Cum CO2-equiv kg[CO2eq]/ha ---|
!               Soil CO2  Net CO2      N2O      CH4 Soil CO2  Net CO2      N2O      CH4  Net CO2      N2O      CH4    Total
!                g[C]/ha  g[C]/ha  g[N]/ha  g[C]/ha kg[C]/ha kg[C]/ha kg[N]/ha kg[C]/ha    CO2eq    CO2eq    CO2eq    CO2eq
@YEAR DOY   DAS   CO2GED   CO2END   N2OGED   CH4GED    CO2EC   CO2ENC    N2OEC    CH4EC    CCEQC    NCEQC    MCEQC    TCEQC
   15 077     1    12360     1656     0.01     0.00       12        2     0.00     0.00        6        0        0        6
   15 078     2    10520     1563     0.01     0.00       23        3     0.00     0.00       12        0        0       12
   15 079     3     8247     1344     0.01     0.00       31        5     0.00     0.00       17        0        0       17
   15 080     4     5896     1031     0.02     0.00       37        6     0.00     0.00       21        0        0       21
   15 081     5     3784      688     0.02     0.00       41        6     0.00     0.00       23        0        0       23
   15 082     6      820      250     0.02     0.00       42        7     0.00     0.00       24        0        0       24
   15 083     7      130        0     0.02     0.00       42        7     0.00     0.00       24        0        0       24
   15 084     8      146       94     0.03     0.00       42        7     0.00     0.00       24        0        0       24
   15 085     9      675      250     0.03     0.00       43        7     0.00     0.00       25        0        0       25
   15 086    10      786      219     0.03     0.00       43        7     0.00     0.00       26        0        0       26
   15 087    11     1747      406     0.03     0.00       45        8     0.00     0.00       28        0        0       28
   15 088    12     2845      656     0.04     0.00       48        8     0.00     0.00       30        0        0       30
   15 089    13     3816      813     0.04     0.00       52        9     0.00     0.00       33        0        0       33
   15 090    14     3348      531     0.03     0.00       55       10     0.00     0.00       35        0        0       35
   15 091    15     3989      656     0.03     0.00       59       10     0.00     0.00       37        0        0       37
   15 092    16     2686      469     0.03     0.00       62       11     0.00     0.00       39        0        0       39
   15 093    17     1332      281     0.02     0.00       63       11     0.00     0.00       40        0        0       40
   15 094    18       74        0     0.04     0.00       63       11     0.00     0.00       40        0        0       40
   15 095    19       14       31     0.03     0.00       63       11     0.00     0.00       40        0        0       40
   15 096    20        0        0     0.05     0.00       63       11     0.00     0.00       40        0        0       40
   15 097    21        0        0     0.06     0.00       63       11     0.00     0.00       40        0        0       40
   15 098    22        0        0     0.06     0.00       63       11     0.00     0.00       40        0        0       40
   15 099    23        0        0     0.39     0.00       63       11     0.00     0.00       40        0        0       41
   15 100    24       73       31     0.69     0.00       63       11     0.00     0.00       40        1        0       41
   15 101    25     3161      563     0.96     0.00       66       12     0.00     0.00       42        1        0       44
   15 102    26     6986     1188     1.22     0.00       73       13     0.00     0.00       47        2        0       49
   15 103    27    10189     1813     1.45     0.00       84       15     0.01     0.00       53        3        0       56
   15 104    28    11807     2219     1.62     0.00       95       17     0.01     0.00       61        3        0       65
   15 105    29    11974     2344     1.68     0.00      107       19     0.01     0.00       70        4        0       74
   15 106    30    12651     2750     1.69     0.00      120       22     0.01     0.00       80        5        0       85
   15 107    31    13371     3063     1.65     0.00      133       25     0.01     0.00       91        6        0       97
   15 108    32    15721     2625     0.47     0.00      149       28     0.01     0.00      101        6        0      107
   15 109    33    13840     1969     1.06     0.00      163       30     0.01     0.00      108        6        0      115
   15 110    34    11573     1625     1.41     0.00      175       31     0.01     0.00      114        7        0      121
   15 111    35     8558     1344     1.28     0.00      183       32     0.02     0.00      119        8        0      127
   15 112    36     6174     1031     1.15     0.00      189       34     0.02     0.00      123        8        0      131
   15 113    37     5931     1125     1.04     0.00      195       35     0.02     0.00      127        9        0      136
   15 114    38     6067     1250     0.94     0.00      201       36     0.02     0.00      132        9        0      141
   15 115    39     7008     1469     0.85     0.00      208       37     0.02     0.00      137        9        0      147
   15 116    40     7985     1781     0.75     0.00      216       39     0.02     0.00      144       10        0      153
   15 117    41     9659     2188     0.67     0.00      226       41     0.02     0.00      152       10        0      162
   15 118    42    11868     2375     0.56     0.00      238       44     0.02     0.00      160       10        0      171
   15 119    43    12904     2500     0.29     0.00      251       46     0.02     0.00      170       11        0      180
   15 120    44    12160     2188     0.43     0.00      263       48     0.02     0.00      178       11        0      188
   15 121    45    11666     2188     0.42     0.00      275       51     0.02     0.00      186       11        0      196
   15 122    46     7815     1875     0.13     0.00      282       52     0.02     0.00      192       11        0      203
   15 123    47     6569     1563     0.20     0.00      289       54     0.02     0.00      198       11        0      209
   15 124    48     7811     2094     0.12     0.00      297       56     0.02     0.00      206       11        0      217
   15 125    49    12027     2844     0.23     0.00      309       59     0.02     0.00      216       11        0      228
   15 126    50    14763     3656     0.19     0.00      324       63     0.02     0.00      230       11        0      241
   15 127    51    14255     4281     0.11     0.00      338       67     0.02     0.00      245       11        0      257
   15 128    52    16134     4406     0.21     0.00      354       71     0.02     0.00      262       11        0      273
   15 129    53    17076     4563     0.27     0.00      371       76     0.02     0.00      278       12        0      290
   15 130    54    15394     4313     0.21     0.00      386       80     0.03     0.00      294       12        0      306
   15 131    55    13237     3938     0.27     0.00      400       84     0.03     0.00      309       12        0      320
   15 132    56    13243     4313     0.27     0.00      413       88     0.03     0.00      324       12        0      336
   15 133    57    14188     4969     0.28     0.00      427       93     0.03     0.00      343       12        0      355
   15 134    58    15146     5031     0.24     0.00      442       98     0.03     0.00      361       12        0      373
   15 135    59    14733     5375     0.31     0.00      457      104     0.03     0.00      381       12        0      393
   15 136    60    13883     5219     0.32     0.00      471      109     0.03     0.00      400       13        0      413
   15 137    61    13471     5156     0.33     0.00      484      114     0.03     0.00      419       13        0      432
   15 138    62    12350     4719     0.34     0.00      497      119     0.03     0.00      436       13        0      449
   15 139    63    11266     4469     0.36     0.00      508      123     0.03     0.00      453       13        0      466
   15 140    64    11866     4250     0.14     0.00      520      128     0.03     0.00      468       13        0      481
   15 141    65    10463     4125     0.12     0.00      530      132     0.03     0.00      483       13        0      497
   15 142    66    10039     3781     0.19     0.00      540      136     0.03     0.00      497       13        0      510
   15 143    67     9304     3313     0.30     0.00      550      139     0.03     0.00      509       13        0      523
   15 144    68     8020     2875     0.24     0.00      558      142     0.03     0.00      520       13        0      533
   15 145    69     7454     2750     0.29     0.00      565      144     0.03     0.00      530       14        0      544
   15 146    70     9018     3375     0.37     0.00      574      148     0.03     0.00      542       14        0      556
   15 147    71     9513     3656     0.42     0.00      584      151     0.03     0.00      556       14        0      570
   15 148    72     9360     3563     0.42     0.00      593      155     0.03     0.00      569       14        0      583
   15 149    73     9483     3719     0.42     0.00      602      159     0.03     0.00      583       14        0      597
   15 150    74    10316     4125     0.41     0.00      613      163     0.03     0.00      598       15        0      612
   15 151    75    10419     4219     0.41     0.00      623      167     0.03     0.00      613       15        0      628
   15 152    76    11206     4688     0.41     0.00      634      172     0.03     0.00      630       15        0      645
   15 153    77    13626     5625     1.27     0.00      648      177     0.03     0.00      651       16        0      667
   15 154    78    15071     6531     1.83     0.00      663      184     0.03     0.00      675       16        0      691
   15 155    79    15769     7156     2.15     0.00      679      191     0.04     0.00      701       17        0      719
   15 156    80    16125     7750     2.31     0.00      695      199     0.04     0.00      730       18        0      748
   15 157    81    16786     8438     2.34     0.00      712      207     0.04     0.00      761       20        0      780
   15 158    82    18049     8813     2.04     0.00      730      216     0.04     0.00      793       21        0      814
   15 159    83    17417     8844     1.88     0.00      747      225     0.05     0.00      826       21        0      847
   15 160    84    19391     8313     0.55     0.00      767      233     0.05     0.00      856       22        0      878
   15 161    85    17855     7469     1.01     0.00      784      241     0.05     0.00      883       22        0      906
   15 162    86    16014     6781     1.17     0.00      800      248     0.05     0.00      908       23        0      931
   15 163    87    14750     6469     1.21     0.00      815      254     0.05     0.00      932       23        0      955
   15 164    88    14090     6469     1.08     0.00      829      260     0.05     0.00      956       24        0      980
   15 165    89    14512     6781     0.44     0.00      844      267     0.05     0.00      981       24        0     1005
   15 166    90    15537     7969     0.36     0.00      859      275     0.05     0.00     1010       24        0     1034
   15 167    91    15627     8063     0.32     0.00      875      283     0.05     0.00     1040       24        0     1064
   15 168    92    15796     7750     0.54     0.00      891      291     0.05     0.00     1068       25        0     1092
   15 169    93    14686     7000     0.68     0.00      905      298     0.05     0.00     1094       25        0     1118
   15 170    94    12463     6406     0.24     0.00      918      304     0.05     0.00     1117       25        0     1142
   15 171    95    11113     5531     0.43     0.00      929      310     0.05     0.00     1137       25        0     1163
   15 172    96    10630     5250     0.53     0.00      940      315     0.05     0.00     1157       25        0     1182
   15 173    97    10172     5063     0.55     0.00      950      320     0.05     0.00     1175       26        0     1201
   15 174    98     9924     5281     0.17     0.00      960      326     0.05     0.00     1195       26        0     1220
   15 175    99     9870     5188     0.25     0.00      970      331     0.06     0.00     1214       26        0     1240
   15 176   100    10335     5313     0.39     0.00      980      336     0.06     0.00     1233       26        0     1259
   15 177   101    10795     5563     0.48     0.00      991      342     0.06     0.00     1254       26        0     1280
   15 178   102    11254     6000     0.44     0.00     1002      348     0.06     0.00     1276       26        0     1302
   15 179   103    11332     6375     0.41     0.00     1013      354     0.06     0.00     1299       27        0     1326
   15 180   104    12149     6938     0.38     0.00     1026      361     0.06     0.00     1325       27        0     1351
   15 181   105    12852     7625     0.36     0.00     1038      369     0.06     0.00     1353       27        0     1380
   15 182   106    13745     8500     0.35     0.00     1052      377     0.06     0.00     1384       27        0     1411
   15 183   107    13722     8813     0.35     0.00     1066      386     0.06     0.00     1416       27        0     1443
   15 184   108    13581     9031     1.64     0.00     1079      395     0.06     0.00     1449       28        0     1477
   15 185   109    13524     9188     2.41     0.00     1093      404     0.06     0.00     1483       29        0     1512
   15 186   110    13476     9438     2.82     0.00     1106      414     0.07     0.00     1518       31        0     1548
   15 187   111    13180     9469     2.97     0.00     1120      423     0.07     0.00     1552       32        0     1584
   15 188   112    12534     9219     2.93     0.00     1132      432     0.07     0.00     1586       33        0     1619
   15 189   113    13729     9469     2.60     0.00     1146      442     0.07     0.00     1621       35        0     1655
   15 190   114    13746     8750     2.23     0.00     1160      450     0.08     0.00     1653       36        0     1689
   15 191   115    11887     7688     2.05     0.00     1171      458     0.08     0.00     1681       37        0     1718
   15 192   116     9958     6719     1.79     0.00     1181      465     0.08     0.00     1706       37        0     1743
   15 193   117     8676     6125     1.59     0.00     1190      471     0.08     0.00     1728       38        0     1766
   15 194   118     7316     5438     1.43     0.00     1197      476     0.08     0.00     1748       39        0     1787
   15 195   119     7171     5313     1.22     0.00     1205      482     0.08     0.00     1768       39        0     1807
   15 196   120     7618     5813     1.09     0.00     1212      488     0.09     0.00     1789       40        0     1829
   15 197   121     7935     6063     0.97     0.00     1220      494     0.09     0.00     1811       40        0     1852
   15 198   122     7846     6250     0.87     0.00     1228      500     0.09     0.00     1834       41        0     1875
   15 199   123     7582     6188     0.78     0.00     1236      506     0.09     0.00     1857       41        0     1898
   15 200   124     7320     6094     0.70     0.00     1243      512     0.09     0.00     1879       41        0     1921
   15 201   125     7065     6063     0.63     0.00     1250      518     0.09     0.00     1902       42        0     1943
   15 202   126     6835     5938     0.57     0.00     1257      524     0.09     0.00     1923       42        0     1965
   15 203   127     6663     5938     0.52     0.00     1263      530     0.09     0.00     1945       42        0     1987
   15 204   128     6275     5594     0.48     0.00     1270      536     0.09     0.00     1966       42        0     2008
   15 205   129     6141     5531     0.43     0.00     1276      541     0.09     0.00     1986       43        0     2029
   15 206   130     5949     5313     0.41     0.00     1282      546     0.09     0.00     2006       43        0     2048
   15 207   131     5447     4969     0.39     0.00     1287      551     0.09     0.00     2024       43        0     2067
   15 208   132     4785     4438     0.38     0.00     1292      556     0.09     0.00     2040       43        0     2083
   15 209   133     5040     4188     0.33     0.00     1297      560     0.09     0.00     2055       43        0     2099
   15 210   134     4684     4031     0.33     0.00     1302      564     0.09     0.00     2070       44        0     2114
   15 211   135     4264     3656     0.32     0.00     1306      568     0.09     0.00     2084       44        0     2127
   15 212   136     3816     3375     0.33     0.00     1310      571     0.09     0.00     2096       44        0     2140
   15 213   137     3785     3438     0.33     0.00     1314      575     0.09     0.00     2109       44        0     2153
   15 214   138     3676     3281     0.32     0.00     1317      578     0.09     0.00     2121       44        0     2165
   15 215   139     3718     3406     0.32     0.00     1321      581     0.09     0.00     2133       44        0     2177
   15 216   140     3950     3656     0.32     0.00     1325      585     0.09     0.00     2147       44        0     2191
   15 217   141     4308     4031     0.31     0.00     1329      589     0.10     0.00     2161       45        0     2206
   15 218   142     4533     4281     0.31     0.00     1334      593     0.10     0.00     2177       45        0     2222
   15 219   143     4884     4594     0.31     0.00     1339      598     0.10     0.00     2194       45        0     2239
   15 220   144     5202     4906     0.31     0.00     1344      603     0.10     0.00     2212       45        0     2257
   15 221   145     5603     5219     0.30     0.00     1350      608     0.10     0.00     2231       45        0     2276
   15 222   146     5700     5313     0.30     0.00     1355      613     0.10     0.00     2251       45        0     2296
   15 223   147     5763     5406     0.30     0.00     1361      619     0.10     0.00     2270       45        0     2316
   15 224   148     5771     5469     0.31     0.00     1367      624     0.10     0.00     2291       46        0     2336
   15 225   149     5717     5438     0.31     0.00     1372      630     0.10     0.00     2310       46        0     2356
   15 226   150     5665     5406     0.31     0.00     1378      635     0.10     0.00     2330       46        0     2376
   15 227   151     6704     5594     0.27     0.00     1385      641     0.10     0.00     2351       46        0     2397
   15 228   152     6367     5438     0.29     0.00     1391      646     0.10     0.00     2371       46        0     2417
   15 229   153     7129     5219     0.27     0.00     1398      651     0.10     0.00     2390       46        0     2436
   15 230   154     6493     4781     0.19     0.00     1405      656     0.10     0.00     2408       46        0     2454
   15 231   155     6058     4406     0.31     0.00     1411      660     0.10     0.00     2424       46        0     2470
   15 232   156     5277     3938     0.31     0.00     1416      664     0.10     0.00     2438       47        0     2485
   15 233   157     4866     3781     0.31     0.00     1421      668     0.10     0.00     2452       47        0     2499
   15 234   158     4659     3656     0.32     0.00     1426      672     0.10     0.00     2465       47        0     2512
   15 235   159     4715     3813     0.32     0.00     1430      676     0.10     0.00     2479       47        0     2527
   15 236   160     5145     4000     0.32     0.00     1436      680     0.10     0.00     2494       47        0     2541
   15 237   161     8174     4750     0.14     0.00     1444      684     0.10     0.00     2512       47        0     2559

*DSSAT Cropping System Model Ver. 4.8.5.000 -release  NOV 27, 2025 15:48:13

*RUN   3        : 3                         WHAPS048 TUDU1501    3
 MODEL          : WHAPS048 - Wheat
 EXPERIMENT     : TUDU1501 WH
 DATA PATH      :
 TREATMENT  3   : 3                         WHAPS048
  
!               |---------- Daily (g/ha) ----------|------- Cumulative (kg/ha) --------|---- Cum CO2-equiv kg[CO2eq]/ha ---|
!               Soil CO2  Net CO2      N2O      CH4 Soil CO2  Net CO2      N2O      CH4  Net CO2      N2O      CH4    Total
!                g[C]/ha  g[C]/ha  g[N]/ha  g[C]/ha kg[C]/ha kg[C]/ha kg[N]/ha kg[C]/ha    CO2eq    CO2eq    CO2eq    CO2eq
@YEAR DOY   DAS   CO2GED   CO2END   N2OGED   CH4GED    CO2EC   CO2ENC    N2OEC    CH4EC    CCEQC    NCEQC    MCEQC    TCEQC
   15 077     1    12360     1656     0.01     0.00       12        2     0.00     0.00        6        0        0        6
   15 078     2    10520     1563     0.01     0.00       23        3     0.00     0.00       12        0        0       12
   15 079     3     8247     1344     0.01     0.00       31        5     0.00     0.00       17        0        0       17
   15 080     4     5896     1031     0.02     0.00       37        6     0.00     0.00       21        0        0       21
   15 081     5     3784      688     0.02     0.00       41        6     0.00     0.00       23        0        0       23
   15 082     6      820      250     0.02     0.00       42        7     0.00     0.00       24        0        0       24
   15 083     7      130        0     0.02     0.00       42        7     0.00     0.00       24        0        0       24
   15 084     8      146       94     0.03     0.00       42        7     0.00     0.00       24        0        0       24
   15 085     9      675      250     0.03     0.00       43        7     0.00     0.00       25        0        0       25
   15 086    10      786      219     0.03     0.00       43        7     0.00     0.00       26        0        0       26
   15 087    11     1747      406     0.03     0.00       45        8     0.00     0.00       28        0        0       28
   15 088    12     2845      656     0.04     0.00       48        8     0.00     0.00       30        0        0       30
   15 089    13     3816      813     0.04     0.00       52        9     0.00     0.00       33        0        0       33
   15 090    14     3348      531     0.03     0.00       55       10     0.00     0.00       35        0        0       35
   15 091    15     3989      656     0.03     0.00       59       10     0.00     0.00       37        0        0       37
   15 092    16     2686      469     0.03     0.00       62       11     0.00     0.00       39        0        0       39
   15 093    17     1332      281     0.02     0.00       63       11     0.00     0.00       40        0        0       40
   15 094    18       74        0     0.04     0.00       63       11     0.00     0.00       40        0        0       40
   15 095    19       14       31     0.03     0.00       63       11     0.00     0.00       40        0        0       40
   15 096    20        0        0     0.05     0.00       63       11     0.00     0.00       40        0        0       40
   15 097    21        0        0     0.06     0.00       63       11     0.00     0.00       40        0        0       40
   15 098    22        0        0     0.06     0.00       63       11     0.00     0.00       40        0        0       40
   15 099    23        0        0     0.06     0.00       63       11     0.00     0.00       40        0        0       40
   15 100    24       73       31     0.06     0.00       63       11     0.00     0.00       40        0        0       41
   15 101    25     3115      563     0.06     0.00       66       12     0.00     0.00       42        0        0       43
   15 102    26     6833     1219     0.06     0.00       73       13     0.00     0.00       47        0        0       47
   15 103    27     9924     1906     0.06     0.00       83       15     0.00     0.00       54        0        0       54
   15 104    28    11485     2281     0.06     0.00       95       17     0.00     0.00       62        0        0       63
   15 105    29    11675     2469     0.07     0.00      106       19     0.00     0.00       71        1        0       72
   15 106    30    12387     2781     0.07     0.00      119       22     0.00     0.00       81        1        0       82
   15 107    31    13175     3094     0.07     0.00      132       25     0.00     0.00       93        1        0       93
   15 108    32    14106     3063     0.02     0.00      146       28     0.00     0.00      104        1        0      105
   15 109    33    12292     2344     0.05     0.00      158       31     0.00     0.00      113        1        0      113
   15 110    34    10239     1938     0.07     0.00      169       33     0.00     0.00      120        1        0      120
   15 111    35     7627     1594     0.07     0.00      176       34     0.00     0.00      126        1        0      126
   15 112    36     5571     1188     0.07     0.00      182       35     0.00     0.00      130        1        0      131
   15 113    37     5395     1219     0.07     0.00      187       37     0.00     0.00      134        1        0      135
   15 114    38     5584     1406     0.08     0.00      193       38     0.00     0.00      140        1        0      140
   15 115    39     6488     1625     0.08     0.00      199       40     0.00     0.00      146        1        0      146
   15 116    40     7465     1938     0.08     0.00      207       42     0.00     0.00      153        1        0      153
   15 117    41     9088     2375     0.08     0.00      216       44     0.00     0.00      161        1        0      162
   15 118    42    11010     2594     0.08     0.00      227       47     0.00     0.00      171        1        0      172
   15 119    43    11537     2813     0.04     0.00      238       49     0.00     0.00      181        1        0      182
   15 120    44    10909     2500     0.08     0.00      249       52     0.00     0.00      190        1        0      191
   15 121    45    10508     2438     0.09     0.00      260       54     0.00     0.00      199        1        0      200
   15 122    46     7087     2125     0.03     0.00      267       56     0.00     0.00      207        1        0      208
   15 123    47     6003     1688     0.05     0.00      273       58     0.00     0.00      213        1        0      214
   15 124    48     7343     2188     0.03     0.00      280       60     0.00     0.00      221        1        0      222
   15 125    49    11359     3000     0.07     0.00      291       63     0.00     0.00      232        1        0      233
   15 126    50    13847     3906     0.06     0.00      305       67     0.00     0.00      247        1        0      248
   15 127    51    13596     4438     0.04     0.00      319       72     0.00     0.00      263        1        0      264
   15 128    52    15513     4563     0.07     0.00      334       76     0.00     0.00      280        1        0      281
   15 129    53    16344     4750     0.10     0.00      351       81     0.00     0.00      297        1        0      298
   15 130    54    14981     4406     0.07     0.00      366       85     0.00     0.00      313        1        0      315
   15 131    55    13499     3875     0.11     0.00      379       89     0.00     0.00      328        1        0      329
   15 132    56    13665     4219     0.12     0.00      393       93     0.00     0.00      343        1        0      344
   15 133    57    14961     4781     0.13     0.00      408       98     0.00     0.00      361        1        0      362
   15 134    58    15811     4906     0.10     0.00      424      103     0.00     0.00      379        1        0      380
   15 135    59    16063     5000     0.15     0.00      440      108     0.00     0.00      397        2        0      398
   15 136    60    15007     4969     0.16     0.00      455      113     0.00     0.00      415        2        0      417
   15 137    61    14389     4938     0.17     0.00      469      118     0.00     0.00      433        2        0      435
   15 138    62    13234     4531     0.18     0.00      482      123     0.00     0.00      450        2        0      452
   15 139    63    12501     4313     0.19     0.00      495      127     0.00     0.00      466        2        0      468
   15 140    64    12056     4188     0.07     0.00      507      131     0.00     0.00      481        2        0      483
   15 141    65    10648     4125     0.06     0.00      518      135     0.00     0.00      496        2        0      498
   15 142    66    10228     3688     0.10     0.00      528      139     0.00     0.00      510        2        0      512
   15 143    67     9506     3281     0.17     0.00      537      142     0.00     0.00      522        2        0      524
   15 144    68     8199     2844     0.14     0.00      546      145     0.00     0.00      532        2        0      534
   15 145    69     7631     2688     0.16     0.00      553      148     0.00     0.00      542        2        0      544
   15 146    70     9566     3250     0.22     0.00      563      151     0.00     0.00      554        2        0      556
   15 147    71    10025     3531     0.24     0.00      573      155     0.01     0.00      567        2        0      569
   15 148    72     9803     3500     0.24     0.00      583      158     0.01     0.00      580        3        0      582
   15 149    73     9876     3594     0.25     0.00      592      162     0.01     0.00      593        3        0      596
   15 150    74    10696     4031     0.26     0.00      603      166     0.01     0.00      608        3        0      611
   15 151    75    10489     4188     0.26     0.00      614      170     0.01     0.00      623        3        0      626
   15 152    76    11184     4563     0.27     0.00      625      174     0.01     0.00      640        3        0      643
   15 153    77    13329     5688     0.28     0.00      638      180     0.01     0.00      661        3        0      664
   15 154    78    14748     6438     0.29     0.00      653      187     0.01     0.00      684        3        0      688
   15 155    79    15551     7031     0.30     0.00      668      194     0.01     0.00      710        3        0      714
   15 156    80    16203     7625     0.31     0.00      685      201     0.01     0.00      738        4        0      742
   15 157    81    17256     8406     0.32     0.00      702      210     0.01     0.00      769        4        0      773
   15 158    82    18791     8875     0.30     0.00      721      218     0.01     0.00      802        4        0      806
   15 159    83    18523     9063     0.31     0.00      739      228     0.01     0.00      835        4        0      839
   15 160    84    19777     8469     0.11     0.00      759      236     0.01     0.00      866        4        0      870
   15 161    85    18185     7625     0.22     0.00      777      244     0.01     0.00      894        4        0      898
   15 162    86    16321     6906     0.29     0.00      793      251     0.01     0.00      919        4        0      924
   15 163    87    15248     6438     0.35     0.00      809      257     0.01     0.00      943        4        0      947
   15 164    88    14634     6531     0.34     0.00      823      263     0.01     0.00      967        5        0      972
   15 165    89    15180     6969     0.15     0.00      839      270     0.01     0.00      993        5        0      997
   15 166    90    16167     8125     0.13     0.00      855      279     0.01     0.00     1022        5        0     1027
   15 167    91    15895     8188     0.12     0.00      871      287     0.01     0.00     1052        5        0     1057
   15 168    92    15982     7688     0.23     0.00      887      294     0.01     0.00     1081        5        0     1085
   15 169    93    14877     6906     0.33     0.00      901      301     0.01     0.00     1106        5        0     1111
   15 170    94    12546     6469     0.11     0.00      914      308     0.01     0.00     1130        5        0     1135
   15 171    95    11232     5500     0.24     0.00      925      313     0.01     0.00     1150        5        0     1155
   15 172    96    10775     5250     0.32     0.00      936      319     0.01     0.00     1169        5        0     1174
   15 173    97    10304     4938     0.36     0.00      946      324     0.01     0.00     1187        6        0     1193
   15 174    98    10034     5250     0.12     0.00      956      329     0.01     0.00     1207        6        0     1212
   15 175    99     9981     5219     0.18     0.00      966      334     0.01     0.00     1226        6        0     1231
   15 176   100    10469     5313     0.30     0.00      977      339     0.01     0.00     1245        6        0     1251
   15 177   101    10885     5500     0.37     0.00      988      345     0.01     0.00     1265        6        0     1271
   15 178   102    11348     5969     0.35     0.00      999      351     0.01     0.00     1287        6        0     1293
   15 179   103    11417     6313     0.35     0.00     1010      357     0.01     0.00     1310        6        0     1317
   15 180   104    12186     6906     0.34     0.00     1023      364     0.01     0.00     1336        6        0     1342
   15 181   105    12872     7531     0.34     0.00     1036      372     0.01     0.00     1363        7        0     1370
   15 182   106    13853     8438     0.35     0.00     1049      380     0.01     0.00     1394        7        0     1401
   15 183   107    14191     8938     0.35     0.00     1064      389     0.01     0.00     1427        7        0     1434
   15 184   108    14458     9438     1.16     0.00     1078      398     0.02     0.00     1462        8        0     1469
   15 185   109    14865     9938     1.66     0.00     1093      408     0.02     0.00     1498        8        0     1507
   15 186   110    15237    10500     1.94     0.00     1108      419     0.02     0.00     1537        9        0     1546
   15 187   111    15314    10844     2.05     0.00     1123      430     0.02     0.00     1577       10        0     1587
   15 188   112    14943    10875     2.03     0.00     1138      440     0.02     0.00     1617       11        0     1628
   15 189   113    16495    11250     1.88     0.00     1155      452     0.03     0.00     1658       12        0     1670
   15 190   114    16674    10469     1.72     0.00     1172      462     0.03     0.00     1696       13        0     1709
   15 191   115    14312     9406     1.57     0.00     1186      472     0.03     0.00     1731       14        0     1744
   15 192   116    12113     8188     1.41     0.00     1198      480     0.03     0.00     1761       14        0     1775
   15 193   117    10868     7625     1.27     0.00     1209      487     0.03     0.00     1789       15        0     1804
   15 194   118     9564     6906     1.16     0.00     1218      494     0.03     0.00     1814       15        0     1829
   15 195   119     9527     6938     1.02     0.00     1228      501     0.03     0.00     1840       16        0     1855
   15 196   120    10221     7594     0.93     0.00     1238      509     0.03     0.00     1867       16        0     1884
   15 197   121    10858     8188     0.85     0.00     1249      517     0.04     0.00     1898       17        0     1914
   15 198   122    11013     8438     0.77     0.00     1260      525     0.04     0.00     1928       17        0     1945
   15 199   123    11057     8625     0.70     0.00     1271      534     0.04     0.00     1960       17        0     1977
   15 200   124    11085     8844     0.64     0.00     1282      543     0.04     0.00     1993       18        0     2010
   15 201   125    10989     8906     0.59     0.00     1293      552     0.04     0.00     2025       18        0     2043
   15 202   126    10860     8875     0.55     0.00     1304      561     0.04     0.00     2058       18        0     2076
   15 203   127    10791     8969     0.51     0.00     1315      570     0.04     0.00     2091       18        0     2109
   15 204   128    10455     8813     0.48     0.00     1325      579     0.04     0.00     2123       19        0     2142
   15 205   129    10316     8500     0.44     0.00     1336      587     0.04     0.00     2154       19        0     2173
   15 206   130    10083     8563     0.43     0.00     1346      596     0.04     0.00     2186       19        0     2205
   15 207   131     9343     7938     0.41     0.00     1355      604     0.04     0.00     2215       19        0     2234
   15 208   132     8280     7156     0.40     0.00     1363      611     0.04     0.00     2241       19        0     2261
   15 209   133     8145     6563     0.35     0.00     1371      617     0.04     0.00     2265       20        0     2285
   15 210   134     7759     6250     0.35     0.00     1379      623     0.04     0.00     2288       20        0     2308
   15 211   135     7034     5688     0.34     0.00     1386      629     0.04     0.00     2309       20        0     2329
   15 212   136     6397     5250     0.35     0.00     1393      634     0.04     0.00     2328       20        0     2348
   15 213   137     6260     5188     0.35     0.00     1399      640     0.04     0.00     2347       20        0     2368
   15 214   138     5981     5063     0.36     0.00     1405      645     0.04     0.00     2366       20        0     2386
   15 215   139     6024     5188     0.36     0.00     1411      650     0.04     0.00     2385       21        0     2406
   15 216   140     6362     5500     0.36     0.00     1417      655     0.04     0.00     2405       21        0     2426
   15 217   141     6870     6000     0.36     0.00     1424      661     0.04     0.00     2427       21        0     2448
   15 218   142     7138     6313     0.36     0.00     1431      668     0.05     0.00     2450       21        0     2471
   15 219   143     7548     6781     0.36     0.00     1439      674     0.05     0.00     2475       21        0     2496
   15 220   144     7883     7125     0.36     0.00     1447      682     0.05     0.00     2501       21        0     2523
   15 221   145     8458     7469     0.35     0.00     1455      689     0.05     0.00     2529       22        0     2550
   15 222   146     8573     7656     0.35     0.00     1464      697     0.05     0.00     2557       22        0     2579
   15 223   147     8673     7844     0.35     0.00     1472      705     0.05     0.00     2586       22        0     2608
   15 224   148     8620     7875     0.35     0.00     1481      712     0.05     0.00     2615       22        0     2637
   15 225   149     8460     7750     0.35     0.00     1489      720     0.05     0.00     2643       22        0     2665
   15 226   150     8335     7656     0.35     0.00     1498      728     0.05     0.00     2671       22        0     2693
   15 227   151     9531     7906     0.31     0.00     1507      736     0.05     0.00     2700       23        0     2723
   15 228   152     9056     7688     0.32     0.00     1516      743     0.05     0.00     2728       23        0     2751
   15 229   153     9596     7219     0.31     0.00     1526      751     0.05     0.00     2755       23        0     2778
   15 230   154     8825     6563     0.21     0.00     1535      757     0.05     0.00     2779       23        0     2802
   15 231   155     8145     6031     0.35     0.00     1543      763     0.05     0.00     2801       23        0     2824
   15 232   156     7114     5313     0.35     0.00     1550      769     0.05     0.00     2821       23        0     2844
   15 233   157     6575     5125     0.35     0.00     1557      774     0.05     0.00     2839       23        0     2863
   15 234   158     6324     4969     0.36     0.00     1563      779     0.05     0.00     2858       24        0     2881
   15 235   159     6445     5156     0.36     0.00     1569      784     0.05     0.00     2876       24        0     2900
   15 236   160     6963     5469     0.36     0.00     1576      789     0.05     0.00     2897       24        0     2920
   15 237   161     9735     6250     0.15     0.00     1586      796     0.05     0.00     2919       24        0     2943

*DSSAT Cropping System Model Ver. 4.8.5.000 -release  NOV 27, 2025 15:48:13

*RUN   4        : 4                         WHAPS048 TUDU1501    4
 MODEL          : WHAPS048 - Wheat
 EXPERIMENT     : TUDU1501 WH
 DATA PATH      :
 TREATMENT  4   : 4                         WHAPS048
  
!               |---------- Daily (g/ha) ----------|------- Cumulative (kg/ha) --------|---- Cum CO2-equiv kg[CO2eq]/ha ---|
!               Soil CO2  Net CO2      N2O      CH4 Soil CO2  Net CO2      N2O      CH4  Net CO2      N2O      CH4    Total
!                g[C]/ha  g[C]/ha  g[N]/ha  g[C]/ha kg[C]/ha kg[C]/ha kg[N]/ha kg[C]/ha    CO2eq    CO2eq    CO2eq    CO2eq
@YEAR DOY   DAS   CO2GED   CO2END   N2OGED   CH4GED    CO2EC   CO2ENC    N2OEC    CH4EC    CCEQC    NCEQC    MCEQC    TCEQC
   15 077     1    12360     1656     0.01     0.00       12        2     0.00     0.00        6        0        0        6
   15 078     2    10520     1563     0.01     0.00       23        3     0.00     0.00       12        0        0       12
   15 079     3     8247     1344     0.01     0.00       31        5     0.00     0.00       17        0        0       17
   15 080     4     5896     1031     0.02     0.00       37        6     0.00     0.00       21        0        0       21
   15 081     5     3784      688     0.02     0.00       41        6     0.00     0.00       23        0        0       23
   15 082     6      820      250     0.02     0.00       42        7     0.00     0.00       24        0        0       24
   15 083     7      130        0     0.02     0.00       42        7     0.00     0.00       24        0        0       24
   15 084     8      146       94     0.03     0.00       42        7     0.00     0.00       24        0        0       24
   15 085     9      675      250     0.03     0.00       43        7     0.00     0.00       25        0        0       25
   15 086    10      786      219     0.03     0.00       43        7     0.00     0.00       26        0        0       26
   15 087    11     1747      406     0.03     0.00       45        8     0.00     0.00       28        0        0       28
   15 088    12     2845      656     0.04     0.00       48        8     0.00     0.00       30        0        0       30
   15 089    13     3816      813     0.04     0.00       52        9     0.00     0.00       33        0        0       33
   15 090    14     3348      531     0.03     0.00       55       10     0.00     0.00       35        0        0       35
   15 091    15     3989      656     0.03     0.00       59       10     0.00     0.00       37        0        0       37
   15 092    16     2686      469     0.03     0.00       62       11     0.00     0.00       39        0        0       39
   15 093    17     1332      281     0.02     0.00       63       11     0.00     0.00       40        0        0       40
   15 094    18       74        0     0.04     0.00       63       11     0.00     0.00       40        0        0       40
   15 095    19       14       31     0.03     0.00       63       11     0.00     0.00       40        0        0       40
   15 096    20        0        0     0.05     0.00       63       11     0.00     0.00       40        0        0       40
   15 097    21        0        0     0.06     0.00       63       11     0.00     0.00       40        0        0       40
   15 098    22        0        0     0.06     0.00       63       11     0.00     0.00       40        0        0       40
   15 099    23        0        0     0.28     0.00       63       11     0.00     0.00       40        0        0       41
   15 100    24       73       31     0.47     0.00       63       11     0.00     0.00       40        1        0       41
   15 101    25     3161      563     0.65     0.00       66       12     0.00     0.00       42        1        0       43
   15 102    26     6986     1188     0.82     0.00       73       13     0.00     0.00       47        1        0       48
   15 103    27    10189     1813     0.97     0.00       84       15     0.00     0.00       53        2        0       55
   15 104    28    11806     2219     1.07     0.00       95       17     0.00     0.00       61        2        0       64
   15 105    29    11970     2344     1.11     0.00      107       19     0.01     0.00       70        3        0       73
   15 106    30    12647     2750     1.11     0.00      120       22     0.01     0.00       80        3        0       84
   15 107    31    13368     3063     1.08     0.00      133       25     0.01     0.00       91        4        0       95
   15 108    32    15721     2625     0.31     0.00      149       28     0.01     0.00      101        4        0      105
   15 109    33    13840     1969     0.69     0.00      163       30     0.01     0.00      108        4        0      113
   15 110    34    11574     1625     0.91     0.00      175       31     0.01     0.00      114        5        0      119
   15 111    35     8559     1344     0.82     0.00      183       32     0.01     0.00      119        5        0      124
   15 112    36     6174     1031     0.74     0.00      189       34     0.01     0.00      123        5        0      128
   15 113    37     5931     1094     0.66     0.00      195       35     0.01     0.00      127        6        0      133
   15 114    38     6067     1281     0.60     0.00      201       36     0.01     0.00      132        6        0      138
   15 115    39     7009     1469     0.54     0.00      208       37     0.01     0.00      137        6        0      143
   15 116    40     7985     1781     0.48     0.00      216       39     0.01     0.00      144        7        0      150
   15 117    41     9658     2188     0.42     0.00      226       41     0.01     0.00      152        7        0      158
   15 118    42    11867     2375     0.36     0.00      238       44     0.01     0.00      160        7        0      167
   15 119    43    12897     2500     0.19     0.00      251       46     0.01     0.00      170        7        0      177
   15 120    44    12156     2188     0.28     0.00      263       48     0.02     0.00      178        7        0      185
   15 121    45    11661     2188     0.28     0.00      275       51     0.02     0.00      186        7        0      193
   15 122    46     7765     1906     0.09     0.00      282       52     0.02     0.00      193        7        0      200
   15 123    47     6536     1563     0.14     0.00      289       54     0.02     0.00      198        7        0      206
   15 124    48     7780     2094     0.09     0.00      297       56     0.02     0.00      206        7        0      213
   15 125    49    11985     2844     0.16     0.00      309       59     0.02     0.00      216        7        0      224
   15 126    50    14731     3656     0.14     0.00      323       63     0.02     0.00      230        8        0      237
   15 127    51    14240     4313     0.08     0.00      338       67     0.02     0.00      246        8        0      253
   15 128    52    16120     4406     0.16     0.00      354       71     0.02     0.00      262        8        0      269
   15 129    53    17073     4563     0.21     0.00      371       76     0.02     0.00      279        8        0      286
   15 130    54    15354     4281     0.17     0.00      386       80     0.02     0.00      294        8        0      302
   15 131    55    13250     3969     0.22     0.00      399       84     0.02     0.00      309        8        0      317
   15 132    56    13215     4313     0.23     0.00      413       88     0.02     0.00      325        8        0      333
   15 133    57    14170     4969     0.25     0.00      427       93     0.02     0.00      343        8        0      351
   15 134    58    15129     5063     0.22     0.00      442       99     0.02     0.00      361        8        0      370
   15 135    59    14745     5344     0.29     0.00      457      104     0.02     0.00      381        8        0      390
   15 136    60    13877     5250     0.30     0.00      470      109     0.02     0.00      400        9        0      409
   15 137    61    13478     5125     0.32     0.00      484      114     0.02     0.00      419        9        0      428
   15 138    62    12359     4781     0.33     0.00      496      119     0.02     0.00      437        9        0      446
   15 139    63    11276     4406     0.35     0.00      508      123     0.02     0.00      453        9        0      462
   15 140    64    11871     4281     0.13     0.00      519      128     0.02     0.00      469        9        0      478
   15 141    65    10466     4156     0.12     0.00      530      132     0.02     0.00      484        9        0      493
   15 142    66    10042     3750     0.18     0.00      540      136     0.02     0.00      498        9        0      507
   15 143    67     9306     3313     0.29     0.00      549      139     0.02     0.00      510        9        0      519
   15 144    68     8022     2906     0.24     0.00      557      142     0.02     0.00      520        9        0      530
   15 145    69     7456     2688     0.29     0.00      565      145     0.02     0.00      530       10        0      540
   15 146    70     9039     3406     0.36     0.00      574      148     0.02     0.00      543       10        0      553
   15 147    71     9518     3656     0.41     0.00      583      152     0.02     0.00      556       10        0      566
   15 148    72     9361     3531     0.41     0.00      593      155     0.02     0.00      569       10        0      579
   15 149    73     9482     3719     0.41     0.00      602      159     0.02     0.00      583       10        0      593
   15 150    74    10314     4188     0.41     0.00      612      163     0.02     0.00      598       11        0      609
   15 151    75    10423     4188     0.41     0.00      623      167     0.02     0.00      614       11        0      624
   15 152    76    11209     4688     0.41     0.00      634      172     0.02     0.00      631       11        0      642
   15 153    77    13630     5625     0.96     0.00      648      178     0.02     0.00      651       11        0      663
   15 154    78    15074     6531     1.30     0.00      663      184     0.03     0.00      675       12        0      687
   15 155    79    15769     7156     1.48     0.00      679      191     0.03     0.00      702       13        0      714
   15 156    80    16122     7719     1.57     0.00      695      199     0.03     0.00      730       13        0      743
   15 157    81    16785     8469     1.58     0.00      711      207     0.03     0.00      761       14        0      775
   15 158    82    18055     8781     1.37     0.00      730      216     0.03     0.00      793       15        0      808
   15 159    83    17430     8906     1.26     0.00      747      225     0.03     0.00      826       15        0      841
   15 160    84    19416     8313     0.37     0.00      766      233     0.03     0.00      856       16        0      872
   15 161    85    17878     7438     0.70     0.00      784      241     0.03     0.00      884       16        0      900
   15 162    86    16036     6813     0.82     0.00      800      248     0.03     0.00      909       16        0      925
   15 163    87    14797     6438     0.87     0.00      815      254     0.04     0.00      932       17        0      949
   15 164    88    14125     6500     0.79     0.00      829      261     0.04     0.00      956       17        0      973
   15 165    89    14540     6813     0.33     0.00      844      267     0.04     0.00      981       17        0      998
   15 166    90    15558     7938     0.27     0.00      859      275     0.04     0.00     1010       17        0     1028
   15 167    91    15639     8125     0.25     0.00      875      283     0.04     0.00     1040       17        0     1058
   15 168    92    15801     7719     0.41     0.00      891      291     0.04     0.00     1069       18        0     1086
   15 169    93    14688     7000     0.53     0.00      905      298     0.04     0.00     1094       18        0     1112
   15 170    94    12465     6375     0.19     0.00      918      305     0.04     0.00     1118       18        0     1136
   15 171    95    11115     5563     0.35     0.00      929      310     0.04     0.00     1138       18        0     1156
   15 172    96    10632     5250     0.44     0.00      940      315     0.04     0.00     1157       18        0     1176
   15 173    97    10173     5031     0.47     0.00      950      320     0.04     0.00     1176       19        0     1194
   15 174    98     9926     5281     0.15     0.00      960      326     0.04     0.00     1195       19        0     1214
   15 175    99     9872     5188     0.21     0.00      970      331     0.04     0.00     1214       19        0     1233
   15 176   100    10337     5344     0.34     0.00      980      336     0.04     0.00     1234       19        0     1253
   15 177   101    10796     5531     0.43     0.00      991      342     0.04     0.00     1254       19        0     1273
   15 178   102    11254     6031     0.40     0.00     1002      348     0.04     0.00     1276       19        0     1295
   15 179   103    11331     6344     0.37     0.00     1013      354     0.04     0.00     1300       19        0     1319
   15 180   104    12146     6969     0.35     0.00     1025      361     0.04     0.00     1325       20        0     1345
   15 181   105    12846     7625     0.34     0.00     1038      369     0.04     0.00     1353       20        0     1373
   15 182   106    13735     8469     0.33     0.00     1052      377     0.04     0.00     1384       20        0     1404
   15 183   107    13714     8813     0.33     0.00     1066      386     0.04     0.00     1417       20        0     1437
   15 184   108    13577     9031     1.19     0.00     1079      395     0.04     0.00     1450       21        0     1470
   15 185   109    13523     9219     1.70     0.00     1093      404     0.05     0.00     1483       21        0     1505
   15 186   110    13478     9438     1.97     0.00     1106      414     0.05     0.00     1518       22        0     1540
   15 187   111    13183     9469     2.06     0.00     1120      423     0.05     0.00     1553       23        0     1576
   15 188   112    12539     9250     2.03     0.00     1132      432     0.05     0.00     1587       24        0     1611
   15 189   113    13739     9469     1.79     0.00     1146      442     0.05     0.00     1622       25        0     1647
   15 190   114    13761     8719     1.54     0.00     1160      451     0.06     0.00     1654       26        0     1679
   15 191   115    11898     7719     1.42     0.00     1171      458     0.06     0.00     1682       26        0     1708
   15 192   116     9965     6719     1.25     0.00     1181      465     0.06     0.00     1707       27        0     1734
   15 193   117     8679     6156     1.12     0.00     1190      471     0.06     0.00     1729       28        0     1757
   15 194   118     7321     5375     1.02     0.00     1197      477     0.06     0.00     1749       28        0     1777
   15 195   119     7178     5375     0.88     0.00     1205      482     0.06     0.00     1769       28        0     1797
   15 196   120     7623     5781     0.79     0.00     1212      488     0.06     0.00     1790       29        0     1819
   15 197   121     7943     6125     0.72     0.00     1220      494     0.06     0.00     1812       29        0     1841
   15 198   122     7856     6219     0.65     0.00     1228      500     0.06     0.00     1835       29        0     1865
   15 199   123     7595     6188     0.59     0.00     1236      506     0.06     0.00     1858       30        0     1888
   15 200   124     7334     6156     0.54     0.00     1243      512     0.06     0.00     1880       30        0     1910
   15 201   125     7081     6063     0.50     0.00     1250      518     0.06     0.00     1903       30        0     1933
   15 202   126     6857     5938     0.46     0.00     1257      524     0.07     0.00     1924       30        0     1955
   15 203   127     6687     5938     0.43     0.00     1264      530     0.07     0.00     1946       31        0     1977
   15 204   128     6300     5656     0.40     0.00     1270      536     0.07     0.00     1967       31        0     1998
   15 205   129     6164     5500     0.37     0.00     1276      541     0.07     0.00     1987       31        0     2018
   15 206   130     5970     5344     0.35     0.00     1282      547     0.07     0.00     2007       31        0     2038
   15 207   131     5466     5000     0.34     0.00     1288      552     0.07     0.00     2025       31        0     2057
   15 208   132     4800     4406     0.33     0.00     1292      556     0.07     0.00     2041       32        0     2073
   15 209   133     5055     4250     0.29     0.00     1297      560     0.07     0.00     2057       32        0     2089
   15 210   134     4698     4031     0.30     0.00     1302      565     0.07     0.00     2072       32        0     2104
   15 211   135     4277     3656     0.30     0.00     1306      568     0.07     0.00     2085       32        0     2117
   15 212   136     3827     3375     0.30     0.00     1310      572     0.07     0.00     2098       32        0     2130
[...]
   15 077     1    12360     1656     0.01     0.00       12        2     0.00     0.00        6        0        0        6
   15 078     2    10520     1563     0.01     0.00       23        3     0.00     0.00       12        0        0       12
   15 079     3     8247     1344     0.01     0.00       31        5     0.00     0.00       17        0        0       17
   15 080     4     5896     1031     0.02     0.00       37        6     0.00     0.00       21        0        0       21
   15 081     5     3784      688     0.02     0.00       41        6     0.00     0.00       23        0        0       23
   15 082     6      820      250     0.02     0.00       42        7     0.00     0.00       24        0        0       24
   15 083     7      130        0     0.02     0.00       42        7     0.00     0.00       24        0        0       24
   15 084     8      146       94     0.03     0.00       42        7     0.00     0.00       24        0        0       24
   15 085     9      675      250     0.03     0.00       43        7     0.00     0.00       25        0        0       25
   15 086    10      786      219     0.03     0.00       43        7     0.00     0.00       26        0        0       26
   15 087    11     1747      406     0.03     0.00       45        8     0.00     0.00       28        0        0       28
   15 088    12     2845      656     0.04     0.00       48        8     0.00     0.00       30        0        0       30
   15 089    13     3816      813     0.04     0.00       52        9     0.00     0.00       33        0        0       33
   15 090    14     3348      531     0.03     0.00       55       10     0.00     0.00       35        0        0       35
   15 091    15     3989      656     0.03     0.00       59       10     0.00     0.00       37        0        0       37
   15 092    16     2686      469     0.03     0.00       62       11     0.00     0.00       39        0        0       39
   15 093    17     1332      281     0.02     0.00       63       11     0.00     0.00       40        0        0       40
   15 094    18       74        0     0.04     0.00       63       11     0.00     0.00       40        0        0       40
   15 095    19       14       31     0.03     0.00       63       11     0.00     0.00       40        0        0       40
   15 096    20        0        0     0.05     0.00       63       11     0.00     0.00       40        0        0       40
   15 097    21        0        0     0.06     0.00       63       11     0.00     0.00       40        0        0       40
   15 098    22        0        0     0.06     0.00       63       11     0.00     0.00       40        0        0       40
   15 099    23        0        0     0.06     0.00       63       11     0.00     0.00       40        0        0       40
   15 100    24       73       31     0.06     0.00       63       11     0.00     0.00       40        0        0       41
   15 101    25     3115      563     0.06     0.00       66       12     0.00     0.00       42        0        0       43
   15 102    26     6833     1219     0.06     0.00       73       13     0.00     0.00       47        0        0       47
   15 103    27     9924     1906     0.06     0.00       83       15     0.00     0.00       54        0        0       54
   15 104    28    11485     2281     0.06     0.00       95       17     0.00     0.00       62        0        0       63
   15 105    29    11675     2469     0.07     0.00      106       19     0.00     0.00       71        1        0       72
   15 106    30    12387     2781     0.07     0.00      119       22     0.00     0.00       81        1        0       82
   15 107    31    13175     3094     0.07     0.00      132       25     0.00     0.00       93        1        0       93
   15 108    32    14106     3063     0.02     0.00      146       28     0.00     0.00      104        1        0      105
   15 109    33    12292     2344     0.05     0.00      158       31     0.00     0.00      113        1        0      113
   15 110    34    10239     1938     0.07     0.00      169       33     0.00     0.00      120        1        0      120
   15 111    35     7627     1594     0.07     0.00      176       34     0.00     0.00      126        1        0      126
   15 112    36     5571     1188     0.07     0.00      182       35     0.00     0.00      130        1        0      131
   15 113    37     5395     1219     0.07     0.00      187       37     0.00     0.00      134        1        0      135
   15 114    38     5584     1406     0.08     0.00      193       38     0.00     0.00      140        1        0      140
   15 115    39     6488     1625     0.08     0.00      199       40     0.00     0.00      146        1        0      146
   15 116    40     7465     1938     0.08     0.00      207       42     0.00     0.00      153        1        0      153
   15 117    41     9088     2375     0.08     0.00      216       44     0.00     0.00      161        1        0      162
   15 118    42    11010     2594     0.08     0.00      227       47     0.00     0.00      171        1        0      172
   15 119    43    11537     2813     0.04     0.00      238       49     0.00     0.00      181        1        0      182
   15 120    44    10909     2500     0.08     0.00      249       52     0.00     0.00      190        1        0      191
   15 121    45    10508     2438     0.09     0.00      260       54     0.00     0.00      199        1        0      200
   15 122    46     7087     2125     0.03     0.00      267       56     0.00     0.00      207        1        0      208
   15 123    47     6003     1688     0.05     0.00      273       58     0.00     0.00      213        1        0      214
   15 124    48     7343     2188     0.03     0.00      280       60     0.00     0.00      221        1        0      222
   15 125    49    11359     3000     0.07     0.00      291       63     0.00     0.00      232        1        0      233
   15 126    50    13847     3906     0.06     0.00      305       67     0.00     0.00      247        1        0      248
   15 127    51    13596     4438     0.04     0.00      319       72     0.00     0.00      263        1        0      264
   15 128    52    15513     4563     0.07     0.00      334       76     0.00     0.00      280        1        0      281
   15 129    53    16344     4750     0.10     0.00      351       81     0.00     0.00      297        1        0      298
   15 130    54    14981     4406     0.07     0.00      366       85     0.00     0.00      313        1        0      315
   15 131    55    13499     3875     0.11     0.00      379       89     0.00     0.00      328        1        0      329
   15 132    56    13665     4219     0.12     0.00      393       93     0.00     0.00      343        1        0      344
   15 133    57    14961     4781     0.13     0.00      408       98     0.00     0.00      361        1        0      362
   15 134    58    15811     4906     0.10     0.00      424      103     0.00     0.00      379        1        0      380
   15 135    59    16063     5000     0.15     0.00      440      108     0.00     0.00      397        2        0      398
   15 136    60    15007     4969     0.16     0.00      455      113     0.00     0.00      415        2        0      417
   15 137    61    14389     4938     0.17     0.00      469      118     0.00     0.00      433        2        0      435
   15 138    62    13234     4531     0.18     0.00      482      123     0.00     0.00      450        2        0      452
   15 139    63    12501     4313     0.19     0.00      495      127     0.00     0.00      466        2        0      468
   15 140    64    12056     4188     0.07     0.00      507      131     0.00     0.00      481        2        0      483
   15 141    65    10648     4125     0.06     0.00      518      135     0.00     0.00      496        2        0      498
   15 142    66    10228     3688     0.10     0.00      528      139     0.00     0.00      510        2        0      512
   15 143    67     9506     3281     0.17     0.00      537      142     0.00     0.00      522        2        0      524
   15 144    68     8199     2844     0.14     0.00      546      145     0.00     0.00      532        2        0      534
   15 145    69     7631     2688     0.16     0.00      553      148     0.00     0.00      542        2        0      544
   15 146    70     9566     3250     0.22     0.00      563      151     0.00     0.00      554        2        0      556
   15 147    71    10025     3531     0.24     0.00      573      155     0.01     0.00      567        2        0      569
   15 148    72     9803     3500     0.24     0.00      583      158     0.01     0.00      580        3        0      582
   15 149    73     9876     3594     0.25     0.00      592      162     0.01     0.00      593        3        0      596
   15 150    74    10696     4031     0.26     0.00      603      166     0.01     0.00      608        3        0      611
   15 151    75    10489     4188     0.26     0.00      614      170     0.01     0.00      623        3        0      626
   15 152    76    11184     4563     0.27     0.00      625      174     0.01     0.00      640        3        0      643
   15 153    77    13329     5688     0.28     0.00      638      180     0.01     0.00      661        3        0      664
   15 154    78    14748     6438     0.29     0.00      653      187     0.01     0.00      684        3        0      688
   15 155    79    15551     7031     0.30     0.00      668      194     0.01     0.00      710        3        0      714
   15 156    80    16203     7625     0.31     0.00      685      201     0.01     0.00      738        4        0      742
   15 157    81    17256     8406     0.32     0.00      702      210     0.01     0.00      769        4        0      773
   15 158    82    18791     8875     0.30     0.00      721      218     0.01     0.00      802        4        0      806
   15 159    83    18523     9063     0.31     0.00      739      228     0.01     0.00      835        4        0      839
   15 160    84    19777     8469     0.11     0.00      759      236     0.01     0.00      866        4        0      870
   15 161    85    18185     7625     0.22     0.00      777      244     0.01     0.00      894        4        0      898
   15 162    86    16321     6906     0.29     0.00      793      251     0.01     0.00      919        4        0      924
   15 163    87    15248     6438     0.35     0.00      809      257     0.01     0.00      943        4        0      947
   15 164    88    14634     6531     0.34     0.00      823      263     0.01     0.00      967        5        0      972
   15 165    89    15180     6969     0.15     0.00      839      270     0.01     0.00      993        5        0      997
   15 166    90    16167     8125     0.13     0.00      855      279     0.01     0.00     1022        5        0     1027
   15 167    91    15895     8188     0.12     0.00      871      287     0.01     0.00     1052        5        0     1057
   15 168    92    15982     7688     0.23     0.00      887      294     0.01     0.00     1081        5        0     1085
   15 169    93    14877     6906     0.33     0.00      901      301     0.01     0.00     1106        5        0     1111
   15 170    94    12546     6469     0.11     0.00      914      308     0.01     0.00     1130        5        0     1135
   15 171    95    11232     5500     0.24     0.00      925      313     0.01     0.00     1150        5        0     1155
   15 172    96    10775     5250     0.32     0.00      936      319     0.01     0.00     1169        5        0     1174
   15 173    97    10304     4938     0.36     0.00      946      324     0.01     0.00     1187        6        0     1193
   15 174    98    10034     5250     0.12     0.00      956      329     0.01     0.00     1207        6        0     1212
   15 175    99     9981     5219     0.18     0.00      966      334     0.01     0.00     1226        6        0     1231
   15 176   100    10469     5313     0.30     0.00      977      339     0.01     0.00     1245        6        0     1251
   15 177   101    10885     5500     0.37     0.00      988      345     0.01     0.00     1265        6        0     1271
   15 178   102    11348     5969     0.35     0.00      999      351     0.01     0.00     1287        6        0     1293
   15 179   103    11417     6313     0.35     0.00     1010      357     0.01     0.00     1310        6        0     1317
   15 180   104    12186     6906     0.34     0.00     1023      364     0.01     0.00     1336        6        0     1342
   15 181   105    12872     7531     0.34     0.00     1036      372     0.01     0.00     1363        7        0     1370
   15 182   106    13853     8438     0.35     0.00     1049      380     0.01     0.00     1394        7        0     1401
   15 183   107    14191     8938     0.35     0.00     1064      389     0.01     0.00     1427        7        0     1434
   15 184   108    14451     9438     0.35     0.00     1078      398     0.02     0.00     1462        7        0     1469
   15 185   109    14861     9938     0.35     0.00     1093      408     0.02     0.00     1498        7        0     1506
   15 186   110    15236    10500     0.35     0.00     1108      419     0.02     0.00     1537        7        0     1544
   15 187   111    15314    10844     0.35     0.00     1123      430     0.02     0.00     1577        8        0     1584
   15 188   112    14943    10875     0.35     0.00     1138      440     0.02     0.00     1617        8        0     1624
   15 189   113    16496    11250     0.31     0.00     1155      452     0.02     0.00     1658        8        0     1666
   15 190   114    16675    10500     0.31     0.00     1172      462     0.02     0.00     1696        8        0     1704
   15 191   115    14314     9375     0.31     0.00     1186      472     0.02     0.00     1731        8        0     1739
   15 192   116    12117     8188     0.32     0.00     1198      480     0.02     0.00     1761        8        0     1769
   15 193   117    10877     7625     0.33     0.00     1209      487     0.02     0.00     1789        9        0     1797
   15 194   118     9576     6906     0.34     0.00     1218      494     0.02     0.00     1814        9        0     1823
   15 195   119     9538     6938     0.34     0.00     1228      501     0.02     0.00     1840        9        0     1848
   15 196   120    10232     7594     0.34     0.00     1238      509     0.02     0.00     1867        9        0     1876
   15 197   121    10871     8188     0.35     0.00     1249      517     0.02     0.00     1898        9        0     1907
   15 198   122    11027     8438     0.36     0.00     1260      525     0.02     0.00     1928        9        0     1938
   15 199   123    11073     8625     0.36     0.00     1271      534     0.02     0.00     1960       10        0     1970
   15 200   124    11104     8844     0.36     0.00     1282      543     0.02     0.00     1993       10        0     2002
   15 201   125    11009     8906     0.36     0.00     1293      552     0.02     0.00     2025       10        0     2035
   15 202   126    10880     8906     0.36     0.00     1304      561     0.02     0.00     2058       10        0     2068
   15 203   127    10812     8969     0.36     0.00     1315      570     0.02     0.00     2091       10        0     2101
   15 204   128    10478     8813     0.36     0.00     1325      579     0.02     0.00     2123       10        0     2134
   15 205   129    10340     8563     0.35     0.00     1336      587     0.02     0.00     2155       11        0     2165
   15 206   130    10105     8531     0.35     0.00     1346      596     0.02     0.00     2186       11        0     2197
   15 207   131     9365     7969     0.36     0.00     1355      604     0.02     0.00     2215       11        0     2226
   15 208   132     8300     7125     0.36     0.00     1364      611     0.02     0.00     2241       11        0     2252
   15 209   133     8162     6594     0.32     0.00     1372      617     0.02     0.00     2266       11        0     2277
   15 210   134     7776     6281     0.32     0.00     1380      624     0.02     0.00     2289       11        0     2300
   15 211   135     7050     5656     0.33     0.00     1387      629     0.02     0.00     2309       11        0     2321
   15 212   136     6412     5281     0.34     0.00     1393      635     0.02     0.00     2329       12        0     2340
   15 213   137     6275     5219     0.34     0.00     1399      640     0.03     0.00     2348       12        0     2360
   15 214   138     5996     5031     0.35     0.00     1405      645     0.03     0.00     2366       12        0     2378
   15 215   139     6040     5188     0.35     0.00     1411      650     0.03     0.00     2385       12        0     2398
   15 216   140     6378     5500     0.35     0.00     1418      655     0.03     0.00     2406       12        0     2418
   15 217   141     6889     6031     0.36     0.00     1425      662     0.03     0.00     2428       12        0     2440
   15 218   142     7157     6344     0.36     0.00     1432      668     0.03     0.00     2451       13        0     2464
   15 219   143     7568     6781     0.36     0.00     1439      675     0.03     0.00     2476       13        0     2489
   15 220   144     7904     7125     0.36     0.00     1447      682     0.03     0.00     2502       13        0     2515
   15 221   145     8475     7500     0.34     0.00     1456      689     0.03     0.00     2530       13        0     2543
   15 222   146     8590     7688     0.35     0.00     1464      697     0.03     0.00     2558       13        0     2571
   15 223   147     8690     7844     0.35     0.00     1473      705     0.03     0.00     2587       13        0     2600
   15 224   148     8637     7875     0.35     0.00     1482      713     0.03     0.00     2615       14        0     2629
   15 225   149     8477     7750     0.36     0.00     1490      720     0.03     0.00     2644       14        0     2658
   15 226   150     8350     7719     0.36     0.00     1498      728     0.03     0.00     2672       14        0     2686
   15 227   151     9546     7906     0.31     0.00     1508      736     0.03     0.00     2701       14        0     2715
   15 228   152     9070     7688     0.33     0.00     1517      744     0.03     0.00     2729       14        0     2744
   15 229   153     9607     7219     0.32     0.00     1527      751     0.03     0.00     2756       14        0     2770
   15 230   154     8840     6625     0.21     0.00     1535      758     0.03     0.00     2780       14        0     2795
   15 231   155     8158     6000     0.35     0.00     1544      764     0.03     0.00     2802       15        0     2817
   15 232   156     7126     5313     0.36     0.00     1551      769     0.03     0.00     2822       15        0     2837
   15 233   157     6586     5125     0.36     0.00     1557      774     0.03     0.00     2841       15        0     2856
   15 234   158     6336     5000     0.36     0.00     1564      779     0.03     0.00     2859       15        0     2874
   15 235   159     6457     5156     0.37     0.00     1570      784     0.03     0.00     2878       15        0     2893
   15 236   160     6975     5469     0.37     0.00     1577      790     0.03     0.00     2898       16        0     2913
   15 237   161     9741     6250     0.16     0.00     1587      796     0.03     0.00     2921       16        0     2936
