*N2O emissions output file

*DSSAT Cropping System Model Ver. 4.8.5.000 -release  NOV 27, 2025 15:48:13

*RUN   1        : 1                         WHAPS048 TUDU1501    1
 MODEL          : WHAPS048 - Wheat
 EXPERIMENT     : TUDU1501 WH
 DATA PATH      :
 TREATMENT  1   : 1                         WHAPS048
  
!              |------------------------------ Cumulative -----------------------------|------------------------------ Daily ----------------------------------|
!               N2Oemit  N2emit  NOemit   Denit  Nitrif   N2O-denit+nit      N2      NO N2Oemit  N2emit  NOemit   Denit  Nitrif   N2O-denit+nit      N2      NO   Denitrification (g[N]/ha) by soil depth (cm):                                   Nitrification (g[N]/ha) by soil depth (cm):                                     N2O flux (g[N]/ha) by soil depth (cm):                                          N2 flux (g[N]/ha) by soil depth (cm):                                           NO flux (g[N]/ha) by soil depth (cm):
!                 kg/ha   kg/ha   kg/ha   kg/ha   kg/ha   kg/ha   kg/ha   kg/ha   kg/ha    g/ha    g/ha    g/ha    g/ha    g/ha    g/ha    g/ha    g/ha    g/ha     0-5    5-15   15-20   20-30   30-40   40-50   50-60   60-70   70-90  90-210     0-5    5-15   15-20   20-30   30-40   40-50   50-60   60-70   70-90  90-210     0-5    5-15   15-20   20-30   30-40   40-50   50-60   60-70   70-90  90-210     0-5    5-15   15-20   20-30   30-40   40-50   50-60   60-70   70-90  90-210     0-5    5-15   15-20   20-30   30-40   40-50   50-60   60-70   70-90  90-210
@YEAR DOY   DAS   N2OEC    N2EC    NOEC    NDNC    NITC   N2ODC   N2ONC   N2FLC   NOFLC  N2OGED   N2GED   NOGED    NDND   NITRD   N2ODD   N2OND   N2FLD   NOFLD   NDN1D   NDN2D   NDN3D   NDN4D   NDN5D   NDN6D   NDN7D   NDN8D   NDN9D   NDN10   NIT1D   NIT2D   NIT3D   NIT4D   NIT5D   NIT6D   NIT7D   NIT8D   NIT9D   NIT10   N2O1D   N2O2D   N2O3D   N2O4D   N2O5D   N2O6D   N2O7D   N2O8D   N2O9D   N2O10   N2F1D   N2F2D   N2F3D   N2F4D   N2F5D   N2F6D   N2F7D   N2F8D   N2F9D   N2F10   NOF1D   NOF2D   NOF3D   NOF4D   NOF5D   NOF6D   NOF7D   NOF8D   NOF9D   NOF10
   15 077     1    0.00    0.00    0.00    0.00     1.1   0.000   0.001   0.000   0.001     0.0     0.0     0.0     0.0    1119    0.00    1.12    0.00    1.50     0.0     0.0     0.0     0.0     0.0     0.0     0.0     0.0     0.0     0.0     22.     45.     23.     47.     42.     49.     50.     51.    107.    110.     0.0     0.0     0.0     0.0     0.0     0.0     0.1     0.1     0.1     0.1     0.0     0.0     0.0     0.0     0.0     0.0     0.0     0.0     0.0     0.0     0.1     0.2     0.1     0.1     0.1     0.1     0.1     0.1     0.1     0.1
   15 078     2    0.00    0.00    0.00    0.00     2.1   0.000   0.002   0.000   0.003     0.0     0.0     0.0     0.0     943    0.00    0.94    0.00    1.23     0.0     0.0     0.0     0.0     0.0     0.0     0.0     0.0     0.0     0.0     16.     34.     19.     39.     36.     41.     42.     43.     90.     93.     0.0     0.0     0.0     0.0     0.0     0.0     0.0     0.0     0.1     0.1     0.0     0.0     0.0     0.0     0.0     0.0     0.0     0.0     0.0     0.0     0.0     0.1     0.1     0.1     0.1     0.1     0.1     0.1     0.1     0.1
   15 079     3    0.00    0.00    0.00    0.00     2.9   0.000   0.003   0.000   0.004     0.0     0.0     0.0     0.0     794    0.00    0.79    0.00    1.03     0.0     0.0     0.0     0.0     0.0     0.0     0.0     0.0     0.0     0.0     12.     26.     16.     33.     35.     34.     35.     36.     75.     78.     0.0     0.0     0.0     0.0     0.0     0.0     0.0     0.0     0.1     0.1     0.0     0.0     0.0     0.0     0.0     0.0     0.0     0.0     0.0     0.0     0.0     0.1     0.0     0.1     0.1     0.1     0.0     0.0     0.1     0.1
   15 080     4    0.00    0.00    0.00    0.00     3.5   0.000   0.004   0.000   0.007     0.0     0.0     0.1     0.0     666    0.00    0.67    0.00    3.20     0.0     0.0     0.0     0.0     0.0     0.0     0.0     0.0     0.0     0.0      9.     19.     13.     27.     29.     28.     29.     30.     63.     66.     0.0     0.0     0.0     0.0     0.0     0.0     0.0     0.0     0.1     0.1     0.0     0.0     0.0     0.0     0.0     0.0     0.0     0.0     0.0     0.0     0.1     0.2     0.1     0.2     0.2     0.2     0.2     0.1     0.3     0.3
   15 081     5    0.00    0.00    0.00    0.00     4.1   0.000   0.004   0.000   0.009     0.0     0.0     0.1     0.0     562    0.00    0.56    0.00    2.18     0.0     0.0     0.0     0.0     0.0     0.0     0.0     0.0     0.0     0.0      7.     15.     11.     22.     24.     24.     25.     25.     53.     55.     0.0     0.0     0.0     0.0     0.0     0.0     0.0     0.0     0.1     0.1     0.0     0.0     0.0     0.0     0.0     0.0     0.0     0.0     0.0     0.0     0.1     0.2     0.1     0.2     0.1     0.1     0.1     0.1     0.2     0.2
   15 082     6    0.00    0.00    0.00    0.00     4.6   0.000   0.005   0.000   0.011     0.0     0.0     0.1     0.0     468    0.00    0.47    0.00    1.46     0.0     0.0     0.0     0.0     0.0     0.0     0.0     0.0     0.0     0.0      6.     12.      9.     18.     20.     19.     20.     21.     44.     46.     0.0     0.0     0.0     0.0     0.0     0.0     0.0     0.0     0.0     0.0     0.0     0.0     0.0     0.0     0.0     0.0     0.0     0.0     0.0     0.0     0.0     0.1     0.1     0.1     0.1     0.1     0.1     0.1     0.1     0.1
   15 083     7    0.00    0.00    0.00    0.00     5.0   0.000   0.005   0.000   0.012     0.0     0.0     0.1     0.0     407    0.00    0.41    0.00    1.03     0.0     0.0     0.0     0.0     0.0     0.0     0.0     0.0     0.0     0.0      5.     10.      8.     16.     17.     17.     18.     18.     38.     40.     0.0     0.0     0.0     0.0     0.0     0.0     0.0     0.0     0.0     0.0     0.0     0.0     0.0     0.0     0.0     0.0     0.0     0.0     0.0     0.0     0.0     0.1     0.0     0.1     0.1     0.1     0.0     0.0     0.1     0.1
   15 084     8    0.00    0.00    0.00    0.00     5.3   0.000   0.005   0.000   0.012     0.0     0.0     0.1     0.0     373    0.00    0.37    0.00    0.77     0.0     0.0     0.0     0.0     0.0     0.0     0.0     0.0     0.0     0.0      5.     10.      7.     15.     16.     16.     16.     17.     35.     37.     0.0     0.0     0.0     0.0     0.0     0.0     0.0     0.0     0.0     0.0     0.0     0.0     0.0     0.0     0.0     0.0     0.0     0.0     0.0     0.0     0.0     0.1     0.0     0.1     0.0     0.0     0.0     0.0     0.1     0.1
   15 085     9    0.00    0.00    0.00    0.00     5.7   0.000   0.006   0.000   0.013     0.0     0.0     0.1     0.0     353    0.00    0.35    0.00    0.60     0.0     0.0     0.0     0.0     0.0     0.0     0.0     0.0     0.0     0.0      5.      9.      7.     14.     15.     15.     16.     16.     33.     35.     0.0     0.0     0.0     0.0     0.0     0.0     0.0     0.0     0.0     0.0     0.0     0.0     0.0     0.0     0.0     0.0     0.0     0.0     0.0     0.0     0.0     0.0     0.0     0.0     0.0     0.0     0.0     0.0     0.0     0.0
   15 086    10    0.00    0.00    0.00    0.00     6.0   0.000   0.006   0.000   0.013     0.0     0.0     0.2     0.0     323    0.00    0.32    0.00    0.45     0.0     0.0     0.0     0.0     0.0     0.0     0.0     0.0     0.0     0.0      4.      9.      6.     13.     14.     14.     14.     15.     30.     32.     0.0     0.0     0.0     0.0     0.0     0.0     0.0     0.0     0.0     0.0     0.0     0.0     0.0     0.0     0.0     0.0     0.0     0.0     0.0     0.0     0.0     0.0     0.0     0.0     0.0     0.0     0.0     0.0     0.0     0.0
   15 087    11    0.00    0.00    0.00    0.00     6.3   0.000   0.006   0.000   0.014     0.0     0.0     0.2     0.0     303    0.00    0.30    0.00    0.39     0.0     0.0     0.0     0.0     0.0     0.0     0.0     0.0     0.0     0.0      4.      8.      6.     13.     13.     13.     14.     14.     29.     30.     0.0     0.0     0.0     0.0     0.0     0.0     0.0     0.0     0.0     0.0     0.0     0.0     0.0     0.0     0.0     0.0     0.0     0.0     0.0     0.0     0.0     0.0     0.0     0.0     0.0     0.0     0.0     0.0     0.0     0.0
   15 088    12    0.00    0.00    0.00    0.00     6.6   0.000   0.007   0.000   0.014     0.0     0.0     0.2     0.0     285    0.00    0.29    0.00    0.37     0.0     0.0     0.0     0.0     0.0     0.0     0.0     0.0     0.0     0.0      4.      8.      6.     12.     13.     13.     13.     13.     27.     28.     0.0     0.0     0.0     0.0     0.0     0.0     0.0     0.0     0.0     0.0     0.0     0.0     0.0     0.0     0.0     0.0     0.0     0.0     0.0     0.0     0.0     0.0     0.0     0.0     0.0     0.0     0.0     0.0     0.0     0.0
   15 089    13    0.00    0.00    0.00    0.00     6.9   0.000   0.007   0.000   0.015     0.0     0.0     0.2     0.0     268    0.00    0.27    0.00    0.35     0.0     0.0     0.0     0.0     0.0     0.0     0.0     0.0     0.0     0.0      4.      7.      6.     12.     12.     12.     12.     13.     26.     26.     0.0     0.0     0.0     0.0     0.0     0.0     0.0     0.0     0.0     0.0     0.0     0.0     0.0     0.0     0.0     0.0     0.0     0.0     0.0     0.0     0.0     0.0     0.0     0.0     0.0     0.0     0.0     0.0     0.0     0.0
   15 090    14    0.00    0.00    0.00    0.00     7.1   0.000   0.007   0.000   0.015     0.0     0.0     0.1     0.0     237    0.00    0.24    0.00    0.30     0.0     0.0     0.0     0.0     0.0     0.0     0.0     0.0     0.0     0.0      3.      6.      5.     10.     11.     10.     11.     11.     23.     23.     0.0     0.0     0.0     0.0     0.0     0.0     0.0     0.0     0.0     0.0     0.0     0.0     0.0     0.0     0.0     0.0     0.0     0.0     0.0     0.0     0.0     0.0     0.0     0.0     0.0     0.0     0.0     0.0     0.0     0.0
   15 091    15    0.00    0.00    0.00    0.00     7.3   0.000   0.007   0.000   0.015     0.0     0.0     0.1     0.0     218    0.00    0.22    0.00    0.27     0.0     0.0     0.0     0.0     0.0     0.0     0.0     0.0     0.0     0.0      2.      5.      5.     10.     10.     10.     10.     10.     21.     22.     0.0     0.0     0.0     0.0     0.0     0.0     0.0     0.0     0.0     0.0     0.0     0.0     0.0     0.0     0.0     0.0     0.0     0.0     0.0     0.0     0.0     0.0     0.0     0.0     0.0     0.0     0.0     0.0     0.0     0.0
   15 092    16    0.00    0.00    0.00    0.00     7.5   0.000   0.008   0.000   0.015     0.0     0.0     0.1     0.0     192    0.00    0.19    0.00    0.24     0.0     0.0     0.0     0.0     0.0     0.0     0.0     0.0     0.0     0.0      1.      3.      4.      8.      9.      8.      9.      9.     18.     19.     0.0     0.0     0.0     0.0     0.0     0.0     0.0     0.0     0.0     0.0     0.0     0.0     0.0     0.0     0.0     0.0     0.0     0.0     0.0     0.0     0.0     0.0     0.0     0.0     0.0     0.0     0.0     0.0     0.0     0.0
   15 093    17    0.00    0.00    0.00    0.00     7.7   0.000   0.008   0.000   0.016     0.0     0.0     0.1     0.0     168    0.00    0.17    0.00    0.20     0.0     0.0     0.0     0.0     0.0     0.0     0.0     0.0     0.0     0.0      1.      2.      3.      7.      8.      7.      8.      8.     16.     17.     0.0     0.0     0.0     0.0     0.0     0.0     0.0     0.0     0.0     0.0     0.0     0.0     0.0     0.0     0.0     0.0     0.0     0.0     0.0     0.0     0.0     0.0     0.0     0.0     0.0     0.0     0.0     0.0     0.0     0.0
   15 094    18    0.00    0.00    0.00    0.00     7.8   0.000   0.008   0.000   0.016     0.0     0.0     0.2     0.0     145    0.00    0.15    0.00    0.18     0.0     0.0     0.0     0.0     0.0     0.0     0.0     0.0     0.0     0.0      1.      2.      3.      6.      7.      6.      7.      7.     14.     14.     0.0     0.0     0.0     0.0     0.0     0.0     0.0     0.0     0.0     0.0     0.0     0.0     0.0     0.0     0.0     0.0     0.0     0.0     0.0     0.0     0.0     0.0     0.0     0.0     0.0     0.0     0.0     0.0     0.0     0.0
   15 095    19    0.00    0.00    0.00    0.00     8.0   0.000   0.008   0.000   0.016     0.0     0.0     0.1     0.0     127    0.00    0.13    0.00    0.15     0.0     0.0     0.0     0.0     0.0     0.0     0.0     0.0     0.0     0.0      1.      2.      2.      5.      6.      6.      6.      6.     12.     13.     0.0     0.0     0.0     0.0     0.0     0.0     0.0     0.0     0.0     0.0     0.0     0.0     0.0     0.0     0.0     0.0     0.0     0.0     0.0     0.0     0.0     0.0     0.0     0.0     0.0     0.0     0.0     0.0     0.0     0.0
   15 096    20    0.00    0.00    0.00    0.00     8.1   0.000   0.008   0.000   0.016     0.0     0.0     0.2     0.0     111    0.00    0.11    0.00    0.13     0.0     0.0     0.0     0.0     0.0     0.0     0.0     0.0     0.0     0.0      1.      1.      2.      5.      5.      5.      5.      5.     10.     11.     0.0     0.0     0.0     0.0     0.0     0.0     0.0     0.0     0.0     0.0     0.0     0.0     0.0     0.0     0.0     0.0     0.0     0.0     0.0     0.0     0.0     0.0     0.0     0.0     0.0     0.0     0.0     0.0     0.0     0.0
   15 097    21    0.00    0.00    0.00    0.00     8.2   0.000   0.008   0.000   0.016     0.1     0.0     0.2     0.0     101    0.00    0.10    0.00    0.12     0.0     0.0     0.0     0.0     0.0     0.0     0.0     0.0     0.0     0.0      1.      1.      2.      4.      5.      4.      5.      5.     10.     10.     0.0     0.0     0.0     0.0     0.0     0.0     0.0     0.0     0.0     0.0     0.0     0.0     0.0     0.0     0.0     0.0     0.0     0.0     0.0     0.0     0.0     0.0     0.0     0.0     0.0     0.0     0.0     0.0     0.0     0.0
   15 098    22    0.00    0.00    0.00    0.00     8.3   0.000   0.008   0.000   0.016     0.1     0.0     0.2     0.0      93    0.00    0.09    0.00    0.12     0.0     0.0     0.0     0.0     0.0     0.0     0.0     0.0     0.0     0.0      1.      1.      2.      4.      4.      4.      4.      4.      9.      9.     0.0     0.0     0.0     0.0     0.0     0.0     0.0     0.0     0.0     0.0     0.0     0.0     0.0     0.0     0.0     0.0     0.0     0.0     0.0     0.0     0.0     0.0     0.0     0.0     0.0     0.0     0.0     0.0     0.0     0.0
   15 099    23    0.00    0.00    0.00    0.00     9.8   0.000   0.010   0.000   0.021     0.3     0.0     1.1     0.0    1517    0.00    1.52    0.00    5.04     0.0     0.0     0.0     0.0     0.0     0.0     0.0     0.0     0.0     0.0   1430.      1.      2.      4.      4.      4.      4.      4.      8.      9.     1.4     0.0     0.0     0.0     0.0     0.0     0.0     0.0     0.0     0.0     0.0     0.0     0.0     0.0     0.0     0.0     0.0     0.0     0.0     0.0     4.9     0.0     0.0     0.0     0.0     0.0     0.0     0.0     0.0     0.0
   15 100    24    0.00    0.00    0.01    0.00    11.8   0.000   0.012   0.000   0.028     0.6     0.0     2.1     0.0    2033    0.00    2.03    0.00    6.93     0.0     0.0     0.0     0.0     0.0     0.0     0.0     0.0     0.0     0.0   1946.      1.      2.      4.      4.      4.      4.      4.      9.      9.     1.9     0.0     0.0     0.0     0.0     0.0     0.0     0.0     0.0     0.0     0.0     0.0     0.0     0.0     0.0     0.0     0.0     0.0     0.0     0.0     6.8     0.0     0.0     0.0     0.0     0.0     0.0     0.0     0.0     0.0
   15 101    25    0.00    0.00    0.01    0.00    14.3   0.000   0.014   0.000   0.037     1.0     0.0     3.3     0.0    2463    0.00    2.46    0.00    8.71     0.0     0.0     0.0     0.0     0.0     0.0     0.0     0.0     0.0     0.0   2375.      1.      2.      4.      4.      4.      4.      4.      9.      9.     2.4     0.0     0.0     0.0     0.0     0.0     0.0     0.0     0.0     0.0     0.0     0.0     0.0     0.0     0.0     0.0     0.0     0.0     0.0     0.0     8.6     0.0     0.0     0.0     0.0     0.0     0.0     0.0     0.0     0.0
   15 102    26    0.00    0.00    0.01    0.00    17.1   0.000   0.017   0.000   0.047     1.3     0.0     4.7     0.0    2843    0.00    2.84    0.00   10.53     0.0     0.0     0.0     0.0     0.0     0.0     0.0     0.0     0.0     0.0   2751.      0.      2.      5.      5.      4.      5.      5.      9.      9.     2.8     0.0     0.0     0.0     0.0     0.0     0.0     0.0     0.0     0.0     0.0     0.0     0.0     0.0     0.0     0.0     0.0     0.0     0.0     0.0    10.4     0.0     0.0     0.0     0.0     0.0     0.0     0.0     0.0     0.0
   15 103    27    0.01    0.00    0.02    0.00    20.2   0.000   0.020   0.000   0.059     1.6     0.0     6.1     0.0    3054    0.00    3.05    0.00   11.92     0.0     0.0     0.0     0.0     0.0     0.0     0.0     0.0     0.0     0.0   2957.      0.      2.      5.      5.      5.      5.      5.     10.     10.     3.0     0.0     0.0     0.0     0.0     0.0     0.0     0.0     0.0     0.0     0.0     0.0     0.0     0.0     0.0     0.0     0.0     0.0     0.0     0.0    11.8     0.0     0.0     0.0     0.0     0.0     0.0     0.0     0.0     0.0
   15 104    28    0.01    0.00    0.03    0.00    23.1   0.000   0.023   0.000   0.071     1.9     0.0     7.4     0.0    2917    0.00    2.92    0.00   11.99     0.0     0.0     0.0     0.0     0.0     0.0     0.0     0.0     0.0     0.0   2817.      0.      2.      5.      5.      5.      5.      5.     10.     10.     2.8     0.0     0.0     0.0     0.0     0.0     0.0     0.0     0.0     0.0     0.0     0.0     0.0     0.0     0.0     0.0     0.0     0.0     0.0     0.0    11.9     0.0     0.0     0.0     0.0     0.0     0.0     0.0     0.0     0.0
   15 105    29    0.01    0.00    0.04    0.00    25.5   0.000   0.026   0.000   0.082     2.0     0.0     8.1     0.0    2433    0.00    2.43    0.00   10.47     0.0     0.0     0.0     0.0     0.0     0.0     0.0     0.0     0.0     0.0   2332.      0.      2.      4.      5.      4.      5.      5.     10.     11.     2.3     0.0     0.0     0.0     0.0     0.0     0.0     0.0     0.0     0.0     0.0     0.0     0.0     0.0     0.0     0.0     0.0     0.0     0.0     0.0    10.4     0.0     0.0     0.0     0.0     0.0     0.0     0.0     0.0     0.0
   15 106    30    0.01    0.00    0.04    0.00    27.6   0.000   0.028   0.000   0.091     2.1     0.0     8.5     0.0    2094    0.00    2.09    0.00    9.38     0.0     0.0     0.0     0.0     0.0     0.0     0.0     0.0     0.0     0.0   1987.      0.      2.      4.      5.      4.      5.      6.     10.     11.     2.0     0.0     0.0     0.0     0.0     0.0     0.0     0.0     0.0     0.0     0.0     0.0     0.0     0.0     0.0     0.0     0.0     0.0     0.0     0.0     9.3     0.0     0.0     0.0     0.0     0.0     0.0     0.0     0.0     0.0
   15 107    31    0.01    0.00    0.05    0.00    29.4   0.000   0.029   0.000   0.100     2.1     0.0     8.6     0.0    1827    0.00    1.83    0.00    8.46     0.0     0.0     0.0     0.0     0.0     0.0     0.0     0.0     0.0     0.0   1714.      0.      2.      4.      5.      5.      5.      6.     11.     12.     1.7     0.0     0.0     0.0     0.0     0.0     0.0     0.0     0.0     0.0     0.0     0.0     0.0     0.0     0.0     0.0     0.0     0.0     0.0     0.0     8.3     0.0     0.0     0.0     0.0     0.0     0.0     0.0     0.0     0.0
   15 108    32    0.01    0.00    0.05    0.00    30.5   0.000   0.031   0.000   0.100     0.6     0.0     2.2     0.0    1097    0.00    1.10    0.00    0.57     0.0     0.0     0.0     0.0     0.0     0.0     0.0     0.0     0.0     0.0    984.      0.      2.      3.      5.      5.      5.      6.     11.     12.     1.0     0.0     0.0     0.0     0.0     0.0     0.0     0.0     0.0     0.0     0.0     0.0     0.0     0.0     0.0     0.0     0.0     0.0     0.0     0.0     0.4     0.0     0.0     0.0     0.0     0.0     0.0     0.0     0.0     0.0
   15 109    33    0.02    0.00    0.06    0.00    31.9   0.000   0.032   0.000   0.102     1.3     0.0     4.7     0.0    1378    0.00    1.38    0.00    1.97     0.0     0.0     0.0     0.0     0.0     0.0     0.0     0.0     0.0     0.0   1269.      0.      2.      3.      4.      4.      5.      6.     10.     11.     1.3     0.0     0.0     0.0     0.0     0.0     0.0     0.0     0.0     0.0     0.0     0.0     0.0     0.0     0.0     0.0     0.0     0.0     0.0     0.0     1.9     0.0     0.0     0.0     0.0     0.0     0.0     0.0     0.0     0.0
   15 110    34    0.02    0.00    0.07    0.00    33.1   0.000   0.033   0.000   0.107     1.8     0.0     6.3     0.0    1225    0.00    1.23    0.00    4.28     0.0     0.0     0.0     0.0     0.0     0.0     0.0     0.0     0.0     0.0   1119.      0.      2.      4.      5.      4.      5.      5.     10.     11.     1.1     0.0     0.0     0.0     0.0     0.0     0.0     0.0     0.0     0.0     0.0     0.0     0.0     0.0     0.0     0.0     0.0     0.0     0.0     0.0     4.2     0.0     0.0     0.0     0.0     0.0     0.0     0.0     0.0     0.0
   15 111    35    0.02    0.00    0.07    0.00    34.1   0.000   0.034   0.000   0.110     1.6     0.0     5.8     0.0     938    0.00    0.94    0.00    3.24     0.0     0.0     0.0     0.0     0.0     0.0     0.0     0.0     0.0     0.0    840.      0.      2.      3.      5.      4.      4.      5.      9.     10.     0.8     0.0     0.0     0.0     0.0     0.0     0.0     0.0     0.0     0.0     0.0     0.0     0.0     0.0     0.0     0.0     0.0     0.0     0.0     0.0     3.1     0.0     0.0     0.0     0.0     0.0     0.0     0.0     0.0     0.0
   15 112    36    0.02    0.00    0.08    0.00    34.8   0.000   0.035   0.000   0.112     1.5     0.0     5.2     0.0     722    0.00    0.72    0.00    2.49     0.0     0.0     0.0     0.0     0.0     0.0     0.0     0.0     0.0     0.0    630.      0.      2.      3.      4.      3.      4.      5.      8.      9.     0.6     0.0     0.0     0.0     0.0     0.0     0.0     0.0     0.0     0.0     0.0     0.0     0.0     0.0     0.0     0.0     0.0     0.0     0.0     0.0     2.4     0.0     0.0     0.0     0.0     0.0     0.0     0.0     0.0     0.0
   15 113    37    0.02    0.00    0.08    0.00    35.4   0.000   0.035   0.000   0.114     1.3     0.0     4.7     0.0     601    0.00    0.60    0.00    2.12     0.0     0.0     0.0     0.0     0.0     0.0     0.0     0.0     0.0     0.0    513.      0.      2.      3.      4.      3.      4.      4.      8.      9.     0.5     0.0     0.0     0.0     0.0     0.0     0.0     0.0     0.0     0.0     0.0     0.0     0.0     0.0     0.0     0.0     0.0     0.0     0.0     0.0     2.0     0.0     0.0     0.0     0.0     0.0     0.0     0.0     0.0     0.0
   15 114    38    0.02    0.00    0.09    0.00    35.9   0.000   0.036   0.000   0.116     1.2     0.0     4.3     0.0     539    0.00    0.54    0.00    1.99     0.0     0.0     0.0     0.0     0.0     0.0     0.0     0.0     0.0     0.0    452.      0.      2.      3.      4.      3.      4.      4.      8.      9.     0.5     0.0     0.0     0.0     0.0     0.0     0.0     0.0     0.0     0.0     0.0     0.0     0.0     0.0     0.0     0.0     0.0     0.0     0.0     0.0     1.9     0.0     0.0     0.0     0.0     0.0     0.0     0.0     0.0     0.0
   15 115    39    0.02    0.00    0.09    0.00    36.4   0.000   0.036   0.000   0.118     1.1     0.0     3.9     0.0     499    0.00    0.50    0.00    1.91     0.0     0.0     0.0     0.0     0.0     0.0     0.0     0.0     0.0     0.0    411.      0.      2.      3.      4.      4.      4.      4.      8.      9.     0.4     0.0     0.0     0.0     0.0     0.0     0.0     0.0     0.0     0.0     0.0     0.0     0.0     0.0     0.0     0.0     0.0     0.0     0.0     0.0     1.8     0.0     0.0     0.0     0.0     0.0     0.0     0.0     0.0     0.0
   15 116    40    0.02    0.00    0.09    0.00    36.9   0.000   0.037   0.000   0.120     1.0     0.0     3.5     0.0     454    0.00    0.45    0.00    1.67     0.0     0.0     0.0     0.0     0.0     0.0     0.0     0.0     0.0     0.0    363.      0.      2.      3.      4.      4.      4.      5.      8.      9.     0.4     0.0     0.0     0.0     0.0     0.0     0.0     0.0     0.0     0.0     0.0     0.0     0.0     0.0     0.0     0.0     0.0     0.0     0.0     0.0     1.6     0.0     0.0     0.0     0.0     0.0     0.0     0.0     0.0     0.0
   15 117    41    0.03    0.00    0.10    0.00    37.3   0.000   0.037   0.000   0.121     0.8     0.0     3.1     0.0     417    0.00    0.42    0.00    1.47     0.0     0.0     0.0     0.0     0.0     0.0     0.0     0.0     0.0     0.0    320.      1.      2.      4.      5.      4.      5.      5.      9.     10.     0.3     0.0     0.0     0.0     0.0     0.0     0.0     0.0     0.0     0.0     0.0     0.0     0.0     0.0     0.0     0.0     0.0     0.0     0.0     0.0     1.4     0.0     0.0     0.0     0.0     0.0     0.0     0.0     0.0     0.0
   15 118    42    0.03    0.00    0.10    0.00    37.6   0.000   0.038   0.000   0.122     0.7     0.0     2.6     0.0     284    0.00    0.28    0.00    0.81     0.0     0.0     0.0     0.0     0.0     0.0     0.0     0.0     0.0     0.0    180.      1.      2.      4.      5.      5.      5.      5.      9.     10.     0.2     0.0     0.0     0.0     0.0     0.0     0.0     0.0     0.0     0.0     0.0     0.0     0.0     0.0     0.0     0.0     0.0     0.0     0.0     0.0     0.7     0.0     0.0     0.0     0.0     0.0     0.0     0.0     0.0     0.0
   15 119    43    0.03    0.00    0.10    0.00    37.8   0.000   0.038   0.000   0.122     0.4     0.0     1.3     0.0     211    0.00    0.21    0.00    0.23     0.0     0.0     0.0     0.0     0.0     0.0     0.0     0.0     0.0     0.0     99.      2.      3.      5.      6.      5.      6.      6.     10.     11.     0.1     0.0     0.0     0.0     0.0     0.0     0.0     0.0     0.0     0.0     0.0     0.0     0.0     0.0     0.0     0.0     0.0     0.0     0.0     0.0     0.1     0.0     0.0     0.0     0.0     0.0     0.0     0.0     0.0     0.0
   15 120    44    0.03    0.00    0.10    0.00    38.0   0.000   0.038   0.000   0.123     0.5     0.0     1.8     0.0     205    0.00    0.21    0.00    0.40     0.0     0.0     0.0     0.0     0.0     0.0     0.0     0.0     0.0     0.0     91.      3.      3.      5.      6.      5.      6.      6.     10.     11.     0.1     0.0     0.0     0.0     0.0     0.0     0.0     0.0     0.0     0.0     0.0     0.0     0.0     0.0     0.0     0.0     0.0     0.0     0.0     0.0     0.3     0.0     0.0     0.0     0.0     0.0     0.0     0.0     0.0     0.0
   15 121    45    0.03    0.00    0.10    0.00    38.2   0.000   0.038   0.000   0.123     0.5     0.0     1.7     0.0     162    0.00    0.16    0.00    0.32     0.0     0.0     0.0     0.0     0.0     0.0     0.0     0.0     0.0     0.0     45.      4.      3.      5.      6.      5.      6.      6.     10.     11.     0.0     0.0     0.0     0.0     0.0     0.0     0.0     0.0     0.0     0.0     0.0     0.0     0.0     0.0     0.0     0.0     0.0     0.0     0.0     0.0     0.2     0.0     0.0     0.0     0.0     0.0     0.0     0.0     0.0     0.0
   15 122    46    0.03    0.00    0.10    0.00    38.3   0.000   0.038   0.000   0.123     0.2     0.0     0.6     0.0     118    0.00    0.12    0.00    0.11     0.0     0.0     0.0     0.0     0.0     0.0     0.0     0.0     0.0     0.0     14.      2.      1.      3.      4.      4.      6.      6.     10.     11.     0.0     0.0     0.0     0.0     0.0     0.0     0.0     0.0     0.0     0.0     0.0     0.0     0.0     0.0     0.0     0.0     0.0     0.0     0.0     0.0     0.0     0.0     0.0     0.0     0.0     0.0     0.0     0.0     0.0     0.0
   15 123    47    0.03    0.00    0.11    0.00    38.4   0.000   0.038   0.001   0.123     0.2     0.2     0.8     1.5     104    0.03    0.10    1.44    0.13     1.5     0.0     0.0     0.0     0.0     0.0     0.0     0.0     0.0     0.0      7.      3.      1.      3.      4.      4.      4.      5.      9.     10.     0.0     0.0     0.0     0.0     0.0     0.0     0.0     0.0     0.0     0.0     1.4     0.0     0.0     0.0     0.0     0.0     0.0     0.0     0.0     0.0     0.0     0.0     0.0     0.0     0.0     0.0     0.0     0.0     0.0     0.0
   15 124    48    0.03    0.00    0.11    0.00    38.5   0.000   0.038   0.003   0.124     0.1     0.2     0.5     1.6     103    0.02    0.10    1.55    0.11     1.6     0.0     0.0     0.0     0.0     0.0     0.0     0.0     0.0     0.0      4.      3.      2.      3.      4.      4.      4.      5.     10.     11.     0.0     0.0     0.0     0.0     0.0     0.0     0.0     0.0     0.0     0.0     1.6     0.0     0.0     0.0     0.0     0.0     0.0     0.0     0.0     0.0     0.0     0.0     0.0     0.0     0.0     0.0     0.0     0.0     0.0     0.0
   15 125    49    0.03    0.00    0.11    0.00    38.6   0.000   0.039   0.003   0.124     0.3     0.4     0.9     0.2     120    0.00    0.12    0.16    0.12     0.2     0.0     0.0     0.0     0.0     0.0     0.0     0.0     0.0     0.0      2.      4.      3.      4.      5.      5.      5.      6.     11.     12.     0.0     0.0     0.0     0.0     0.0     0.0     0.0     0.0     0.0     0.0     0.2     0.0     0.0     0.0     0.0     0.0     0.0     0.0     0.0     0.0     0.0     0.0     0.0     0.0     0.0     0.0     0.0     0.0     0.0     0.0
   15 126    50    0.03    0.00    0.11    0.02    38.7   0.001   0.039   0.020   0.125     0.2     0.4     0.7    18.7     131    1.33    0.13   17.33    1.47     0.2     2.1     3.9     4.5     4.3     3.7     0.0     0.0     0.0     0.0      1.      6.      3.      5.      6.      5.      6.      7.     11.     12.     0.0     0.1     0.3     0.3     0.3     0.3     0.0     0.0     0.0     0.0     0.2     2.0     3.7     4.1     4.0     3.4     0.0     0.0     0.0     0.0     0.0     0.1     0.2     0.4     0.3     0.3     0.0     0.0     0.0     0.0
   15 127    51    0.03    0.00    0.11    0.07    38.9   0.005   0.039   0.068   0.127     0.1     0.3     0.4    51.8     136    3.85    0.14   47.92    2.31     0.3     4.6     4.9    14.0    11.0     7.4     5.8     3.8     0.0     0.0      1.      5.      3.      4.      5.      5.      7.      7.     12.     13.     0.0     0.1     0.2     1.0     0.9     0.7     0.6     0.4     0.0     0.0     0.3     4.5     4.7    13.0    10.2     6.8     5.2     3.4     0.0     0.0     0.0     0.0     0.1     0.4     0.4     0.4     0.4     0.4     0.0     0.0
   15 128    52    0.03    0.00    0.11    0.09    39.0   0.006   0.039   0.086   0.129     0.2     0.6     0.7    18.7     161    1.16    0.16   17.53    1.27     0.0     1.4     1.5     4.9     4.0     2.8     2.3     1.6     0.0     0.0      1.      9.      4.      7.      7.      7.      8.      9.     14.     15.     0.0     0.0     0.1     0.3     0.3     0.2     0.2     0.2     0.0     0.0     0.0     1.4     1.5     4.7     3.8     2.6     2.1     1.5     0.0     0.0     0.0     0.0     0.1     0.2     0.2     0.2     0.2     0.2     0.0     0.0
   15 129    53    0.03    0.00    0.11    0.10    39.2   0.007   0.039   0.091   0.129     0.3     1.0     0.8     5.3     177    0.29    0.18    5.04    0.60     0.0     0.3     0.4     1.4     1.1     0.8     0.8     0.6     0.0     0.0      0.     10.      4.      8.      8.      7.      9.     10.     16.     17.     0.0     0.0     0.0     0.1     0.1     0.1     0.1     0.1     0.0     0.0     0.0     0.3     0.4     1.3     1.1     0.7     0.7     0.5     0.0     0.0     0.0     0.0     0.0     0.1     0.1     0.1     0.1     0.1     0.0     0.0
   15 130    54    0.03    0.00    0.11    0.10    39.4   0.007   0.039   0.095   0.130     0.2     1.0     0.6     4.8     176    0.35    0.18    4.48    0.63     0.0     0.1     0.3     0.5     0.6     0.5     0.7     0.8     1.0     0.4      0.     10.      4.      7.      8.      7.      9.     10.     17.     17.     0.0     0.0     0.0     0.0     0.0     0.0     0.1     0.1     0.1     0.1     0.0     0.1     0.3     0.5     0.5     0.5     0.6     0.7     0.9     0.3     0.0     0.0     0.0     0.0     0.0     0.0     0.1     0.1     0.1     0.1
   15 131    55    0.03    0.01    0.11    0.10    39.6   0.007   0.040   0.097   0.130     0.3     1.4     0.6     1.4     169    0.13    0.17    1.24    0.36     0.0     0.0     0.0     0.0     0.0     0.0     0.1     0.2     0.7     0.2      0.      8.      3.      6.      7.      6.      8.     10.     16.     17.     0.0     0.0     0.0     0.0     0.0     0.0     0.0     0.0     0.1     0.0     0.0     0.0     0.0     0.0     0.0     0.0     0.1     0.2     0.7     0.2     0.0     0.0     0.0     0.0     0.0     0.0     0.0     0.0     0.1     0.0
   15 132    56    0.03    0.01    0.11    0.10    39.7   0.007   0.040   0.097   0.131     0.3     1.6     0.6     0.6     182    0.06    0.18    0.56    0.30     0.0     0.0     0.0     0.0     0.0     0.0     0.0     0.1     0.5     0.0      0.      8.      3.      6.      8.      7.      9.     11.     18.     18.     0.0     0.0     0.0     0.0     0.0     0.0     0.0     0.0     0.1     0.0     0.0     0.0     0.0     0.0     0.0     0.0     0.0     0.1     0.5     0.0     0.0     0.0     0.0     0.0     0.0     0.0     0.0     0.0     0.1     0.0
   15 133    57    0.03    0.01    0.11    0.10    39.9   0.007   0.040   0.097   0.131     0.3     1.8     0.5     0.3     202    0.03    0.20    0.25    0.30     0.0     0.0     0.0     0.0     0.0     0.0     0.0     0.0     0.3     0.0      2.     10.      3.      7.      8.      7.      9.     14.     20.     23.     0.0     0.0     0.0     0.0     0.0     0.0     0.0     0.0     0.0     0.0     0.0     0.0     0.0     0.0     0.0     0.0     0.0     0.0     0.3     0.0     0.0     0.0     0.0     0.0     0.0     0.0     0.0     0.0     0.1     0.0
   15 134    58    0.03    0.01    0.11    0.10    40.2   0.007   0.040   0.098   0.131     0.2     1.6     0.4     0.1     210    0.01    0.21    0.07    0.28     0.0     0.0     0.0     0.0     0.0     0.0     0.0     0.0     0.1     0.0      0.     11.      4.      7.      8.      8.      9.     14.     21.     24.     0.0     0.0     0.0     0.0     0.0     0.0     0.0     0.0     0.0     0.0     0.0     0.0     0.0     0.0     0.0     0.0     0.0     0.0     0.1     0.0     0.0     0.0     0.0     0.0     0.0     0.0     0.0     0.0     0.0     0.0
   15 135    59    0.03    0.01    0.11    0.10    40.4   0.007   0.040   0.098   0.131     0.3     2.1     0.5     0.0     222    0.00    0.22    0.00    0.29     0.0     0.0     0.0     0.0     0.0     0.0     0.0     0.0     0.0     0.0      0.     11.      4.      8.      8.      8.      9.     14.     27.     25.     0.0     0.0     0.0     0.0     0.0     0.0     0.0     0.0     0.0     0.0     0.0     0.0     0.0     0.0     0.0     0.0     0.0     0.0     0.0     0.0     0.0     0.0     0.0     0.0     0.0     0.0     0.0     0.0     0.0     0.0
   15 136    60    0.03    0.01    0.11    0.10    40.6   0.007   0.041   0.098   0.132     0.3     2.3     0.5     0.0     221    0.00    0.22    0.00    0.29     0.0     0.0     0.0     0.0     0.0     0.0     0.0     0.0     0.0     0.0      0.     12.      4.      8.      8.      8.      9.     13.     27.     25.     0.0     0.0     0.0     0.0     0.0     0.0     0.0     0.0     0.0     0.0     0.0     0.0     0.0     0.0     0.0     0.0     0.0     0.0     0.0     0.0     0.0     0.0     0.0     0.0     0.0     0.0     0.0     0.0     0.0     0.0
   15 137    61    0.03    0.02    0.11    0.10    40.8   0.007   0.041   0.098   0.132     0.3     2.4     0.5     0.0     222    0.00    0.22    0.00    0.29     0.0     0.0     0.0     0.0     0.0     0.0     0.0     0.0     0.0     0.0      2.     12.      4.      8.      8.      8.      9.     12.     27.     25.     0.0     0.0     0.0     0.0     0.0     0.0     0.0     0.0     0.0     0.0     0.0     0.0     0.0     0.0     0.0     0.0     0.0     0.0     0.0     0.0     0.0     0.0     0.0     0.0     0.0     0.0     0.0     0.0     0.0     0.0
   15 138    62    0.03    0.02    0.11    0.10    41.0   0.007   0.041   0.098   0.132     0.3     2.5     0.4     0.0     215    0.00    0.21    0.00    0.29     0.0     0.0     0.0     0.0     0.0     0.0     0.0     0.0     0.0     0.0      2.     12.      4.      8.      8.      7.      8.     10.     25.     24.     0.0     0.0     0.0     0.0     0.0     0.0     0.0     0.0     0.0     0.0     0.0     0.0     0.0     0.0     0.0     0.0     0.0     0.0     0.0     0.0     0.0     0.0     0.0     0.0     0.0     0.0     0.0     0.0     0.0     0.0
   15 139    63    0.03    0.02    0.11    0.10    41.2   0.007   0.041   0.098   0.133     0.3     2.6     0.4     0.0     210    0.00    0.21    0.00    0.28     0.0     0.0     0.0     0.0     0.0     0.0     0.0     0.0     0.0     0.0      3.     12.      4.      7.      8.      7.      8.      9.     25.     24.     0.0     0.0     0.0     0.0     0.0     0.0     0.0     0.0     0.0     0.0     0.0     0.0     0.0     0.0     0.0     0.0     0.0     0.0     0.0     0.0     0.0     0.0     0.0     0.0     0.0     0.0     0.0     0.0     0.0     0.0
   15 140    64    0.03    0.02    0.11    0.10    41.4   0.007   0.041   0.098   0.133     0.1     1.0     0.2     0.0     201    0.00    0.20    0.00    0.24     0.0     0.0     0.0     0.0     0.0     0.0     0.0     0.0     0.0     0.0      2.      8.      3.      7.      8.      7.      7.      9.     24.     24.     0.0     0.0     0.0     0.0     0.0     0.0     0.0     0.0     0.0     0.0     0.0     0.0     0.0     0.0     0.0     0.0     0.0     0.0     0.0     0.0     0.0     0.0     0.0     0.0     0.0     0.0     0.0     0.0     0.0     0.0
   15 141    65    0.03    0.02    0.11    0.10    41.6   0.007   0.042   0.098   0.133     0.1     0.9     0.1     0.0     189    0.00    0.19    0.00    0.20     0.0     0.0     0.0     0.0     0.0     0.0     0.0     0.0     0.0     0.0      2.      7.      2.      5.      6.      6.      7.      8.     23.     23.     0.0     0.0     0.0     0.0     0.0     0.0     0.0     0.0     0.0     0.0     0.0     0.0     0.0     0.0     0.0     0.0     0.0     0.0     0.0     0.0     0.0     0.0     0.0     0.0     0.0     0.0     0.0     0.0     0.0     0.0
   15 142    66    0.03    0.03    0.11    0.10    41.8   0.007   0.042   0.098   0.133     0.2     1.3     0.2     0.0     182    0.00    0.18    0.00    0.19     0.0     0.0     0.0     0.0     0.0     0.0     0.0     0.0     0.0     0.0      2.      9.      2.      4.      4.      6.      6.      7.     22.     22.     0.0     0.0     0.0     0.0     0.0     0.0     0.0     0.0     0.0     0.0     0.0     0.0     0.0     0.0     0.0     0.0     0.0     0.0     0.0     0.0     0.0     0.0     0.0     0.0     0.0     0.0     0.0     0.0     0.0     0.0
   15 143    67    0.03    0.03    0.11    0.10    42.0   0.007   0.042   0.098   0.133     0.3     2.1     0.3     0.0     169    0.00    0.17    0.00    0.18     0.0     0.0     0.0     0.0     0.0     0.0     0.0     0.0     0.0     0.0      0.      8.      2.      4.      4.      5.      5.      6.     20.     21.     0.0     0.0     0.0     0.0     0.0     0.0     0.0     0.0     0.0     0.0     0.0     0.0     0.0     0.0     0.0     0.0     0.0     0.0     0.0     0.0     0.0     0.0     0.0     0.0     0.0     0.0     0.0     0.0     0.0     0.0
   15 144    68    0.03    0.03    0.12    0.10    42.1   0.007   0.042   0.098   0.134     0.2     1.7     0.3     0.0     153    0.00    0.15    0.00    0.16     0.0     0.0     0.0     0.0     0.0     0.0     0.0     0.0     0.0     0.0      1.      6.      2.      3.      3.      3.      4.      5.     19.     20.     0.0     0.0     0.0     0.0     0.0     0.0     0.0     0.0     0.0     0.0     0.0     0.0     0.0     0.0     0.0     0.0     0.0     0.0     0.0     0.0     0.0     0.0     0.0     0.0     0.0     0.0     0.0     0.0     0.0     0.0
   15 145    69    0.03    0.03    0.12    0.10    42.3   0.007   0.042   0.098   0.134     0.3     2.0     0.3     0.0     140    0.00    0.14    0.03    0.15     0.0     0.0     0.0     0.0     0.0     0.0     0.0     0.0     0.0     0.0      0.      5.      2.      3.      3.      3.      3.      4.     15.     19.     0.0     0.0     0.0     0.0     0.0     0.0     0.0     0.0     0.0     0.0     0.0     0.0     0.0     0.0     0.0     0.0     0.0     0.0     0.0     0.0     0.0     0.0     0.0     0.0     0.0     0.0     0.0     0.0     0.0     0.0
   15 146    70    0.03    0.03    0.12    0.10    42.4   0.007   0.042   0.098   0.134     0.3     2.6     0.4     0.0     144    0.00    0.14    0.01    0.16     0.0     0.0     0.0     0.0     0.0     0.0     0.0     0.0     0.0     0.0      0.      4.      2.      3.      3.      3.      3.      4.     15.     20.     0.0     0.0     0.0     0.0     0.0     0.0     0.0     0.0     0.0     0.0     0.0     0.0     0.0     0.0     0.0     0.0     0.0     0.0     0.0     0.0     0.0     0.0     0.0     0.0     0.0     0.0     0.0     0.0     0.0     0.0
   15 147    71    0.03    0.04    0.12    0.10    42.6   0.007   0.043   0.098   0.134     0.4     2.9     0.4     0.0     146    0.00    0.15    0.00    0.17     0.0     0.0     0.0     0.0     0.0     0.0     0.0     0.0     0.0     0.0      0.      4.      1.      3.      3.      3.      3.      4.     16.     20.     0.0     0.0     0.0     0.0     0.0     0.0     0.0     0.0     0.0     0.0     0.0     0.0     0.0     0.0     0.0     0.0     0.0     0.0     0.0     0.0     0.0     0.0     0.0     0.0     0.0     0.0     0.0     0.0     0.0     0.0
   15 148    72    0.03    0.04    0.12    0.10    42.7   0.007   0.043   0.098   0.134     0.4     2.8     0.4     0.0     145    0.00    0.15    0.01    0.17     0.0     0.0     0.0     0.0     0.0     0.0     0.0     0.0     0.0     0.0      0.      4.      1.      3.      3.      3.      4.      4.     16.     20.     0.0     0.0     0.0     0.0     0.0     0.0     0.0     0.0     0.0     0.0     0.0     0.0     0.0     0.0     0.0     0.0     0.0     0.0     0.0     0.0     0.0     0.0     0.0     0.0     0.0     0.0     0.0     0.0     0.0     0.0
   15 149    73    0.03    0.04    0.12    0.10    42.9   0.007   0.043   0.098   0.134     0.4     2.8     0.4     0.0     151    0.00    0.15    0.00    0.18     0.0     0.0     0.0     0.0     0.0     0.0     0.0     0.0     0.0     0.0      0.      4.      1.      3.      3.      3.      4.      5.     19.     20.     0.0     0.0     0.0     0.0     0.0     0.0     0.0     0.0     0.0     0.0     0.0     0.0     0.0     0.0     0.0     0.0     0.0     0.0     0.0     0.0     0.0     0.0     0.0     0.0     0.0     0.0     0.0     0.0     0.0     0.0
   15 150    74    0.04    0.05    0.12    0.10    43.0   0.007   0.043   0.098   0.135     0.4     2.7     0.4     0.0     159    0.00    0.16    0.00    0.19     0.0     0.0     0.0     0.0     0.0     0.0     0.0     0.0     0.0     0.0      0.      5.      1.      3.      3.      3.      4.      5.     19.     21.     0.0     0.0     0.0     0.0     0.0     0.0     0.0     0.0     0.0     0.0     0.0     0.0     0.0     0.0     0.0     0.0     0.0     0.0     0.0     0.0     0.0     0.0     0.0     0.0     0.0     0.0     0.0     0.0     0.0     0.0
   15 151    75    0.04    0.05    0.12    0.10    43.2   0.007   0.043   0.098   0.135     0.4     2.6     0.4     0.0     163    0.00    0.16    0.00    0.20     0.0     0.0     0.0     0.0     0.0     0.0     0.0     0.0     0.0     0.0      1.      6.      1.      3.      4.      4.      4.      5.     19.     22.     0.0     0.0     0.0     0.0     0.0     0.0     0.0     0.0     0.0     0.0     0.0     0.0     0.0     0.0     0.0     0.0     0.0     0.0     0.0     0.0     0.0     0.0     0.0     0.0     0.0     0.0     0.0     0.0     0.0     0.0
   15 152    76    0.04    0.05    0.12    0.10    43.4   0.007   0.043   0.098   0.135     0.4     2.6     0.4     0.0     173    0.00    0.17    0.00    0.21     0.0     0.0     0.0     0.0     0.0     0.0     0.0     0.0     0.0     0.0      2.      7.      2.      4.      4.      4.      5.      6.     19.     23.     0.0     0.0     0.0     0.0     0.0     0.0     0.0     0.0     0.0     0.0     0.0     0.0     0.0     0.0     0.0     0.0     0.0     0.0     0.0     0.0     0.0     0.0     0.0     0.0     0.0     0.0     0.0     0.0     0.0     0.0
   15 153    77    0.04    0.05    0.12    0.10    49.1   0.007   0.049   0.098   0.159     1.4     2.5     5.0     0.0    5731    0.00    5.73    0.00   24.33     0.0     0.0     0.0     0.0     0.0     0.0     0.0     0.0     0.0     0.0   5535.      9.      2.      4.      5.      5.      6.      7.     21.     26.     5.5     0.0     0.0     0.0     0.0     0.0     0.0     0.0     0.0     0.0     0.0     0.0     0.0     0.0     0.0     0.0     0.0     0.0     0.0     0.0    24.1     0.0     0.0     0.0     0.0     0.0     0.0     0.0     0.0     0.0
   15 154    78    0.04    0.06    0.13    0.10    54.4   0.007   0.054   0.098   0.182     2.2     2.5     8.6     0.0    5291    0.00    5.29    0.00   22.95     0.0     0.0     0.0     0.0     0.0     0.0     0.0     0.0     0.0     0.0   5066.     12.      3.      6.      7.      6.      7.      8.     24.     30.     5.1     0.0     0.0     0.0     0.0     0.0     0.0     0.0     0.0     0.0     0.0     0.0     0.0     0.0     0.0     0.0     0.0     0.0     0.0     0.0    22.7     0.0     0.0     0.0     0.0     0.0     0.0     0.0     0.0     0.0
   15 155    79    0.04    0.06    0.14    0.10    58.8   0.007   0.059   0.098   0.202     2.7     2.4    10.9     0.0    4440    0.00    4.44    0.00   19.81     0.0     0.0     0.0     0.0     0.0     0.0     0.0     0.0     0.0     0.0   4185.     17.      4.      8.      8.      8.      9.     10.     26.     33.     4.2     0.0     0.0     0.0     0.0     0.0     0.0     0.0     0.0     0.0     0.0     0.0     0.0     0.0     0.0     0.0     0.0     0.0     0.0     0.0    19.5     0.1     0.0     0.0     0.0     0.0     0.0     0.0     0.0     0.0
   15 156    80    0.05    0.06    0.16    0.10    62.5   0.007   0.063   0.098   0.219     3.0     2.4    12.4     0.0    3707    0.00    3.71    0.00   17.14     0.0     0.0     0.0     0.0     0.0     0.0     0.0     0.0     0.0     0.0   3419.     22.      5.      9.     10.      9.     10.     11.     29.     36.     3.4     0.0     0.0     0.0     0.0     0.0     0.0     0.0     0.0     0.0     0.0     0.0     0.0     0.0     0.0     0.0     0.0     0.0     0.0     0.0    16.8     0.1     0.0     0.0     0.0     0.0     0.0     0.0     0.0     0.0
   15 157    81    0.05    0.06    0.17    0.10    65.5   0.007   0.065   0.098   0.233     3.0     2.3    12.9     0.0    2936    0.00    2.94    0.00   13.87     0.0     0.0     0.0     0.0     0.0     0.0     0.0     0.0     0.0     0.0   2606.     29.      6.     12.     13.     11.     12.     13.     32.     40.     2.6     0.0     0.0     0.0     0.0     0.0     0.0     0.0     0.0     0.0     0.0     0.0     0.0     0.0     0.0     0.0     0.0     0.0     0.0     0.0    13.4     0.1     0.0     0.0     0.0     0.0     0.0     0.0     0.0     0.0
   15 158    82    0.05    0.06    0.18    0.10    67.6   0.007   0.068   0.098   0.241     2.7     2.0    11.3     0.0    2146    0.00    2.15    0.00    8.33     0.0     0.0     0.0     0.0     0.0     0.0     0.0     0.0     0.0     0.0   1777.     37.      8.     15.     15.     13.     14.     15.     35.     42.     1.8     0.0     0.0     0.0     0.0     0.0     0.0     0.0     0.0     0.0     0.0     0.0     0.0     0.0     0.0     0.0     0.0     0.0     0.0     0.0     7.8     0.1     0.0     0.0     0.0     0.0     0.0     0.0     0.0     0.0
   15 159    83    0.05    0.07    0.19    0.10    69.1   0.007   0.069   0.098   0.247     2.5     2.0    10.3     0.0    1502    0.00    1.50    0.00    5.66     0.0     0.0     0.0     0.0     0.0     0.0     0.0     0.0     0.0     0.0   1106.     41.     10.     17.     17.     15.     16.     17.     37.     44.     1.1     0.0     0.0     0.0     0.0     0.0     0.0     0.0     0.0     0.0     0.0     0.0     0.0     0.0     0.0     0.0     0.0     0.0     0.0     0.0     5.1     0.1     0.0     0.0     0.0     0.0     0.0     0.0     0.0     0.0
   15 160    84    0.05    0.07    0.19    0.10    69.8   0.007   0.070   0.098   0.248     0.7     0.6     2.9     0.0     681    0.00    0.68    0.00    0.64     0.0     0.0     0.0     0.0     0.0     0.0     0.0     0.0     0.0     0.0    299.     27.      9.     19.     19.     16.     17.     17.     37.     43.     0.3     0.0     0.0     0.0     0.0     0.0     0.0     0.0     0.0     0.0     0.0     0.0     0.0     0.0     0.0     0.0     0.0     0.0     0.0     0.0     0.1     0.1     0.0     0.0     0.0     0.0     0.0     0.0     0.0     0.0
   15 161    85    0.06    0.07    0.20    0.10    70.3   0.007   0.070   0.098   0.248     1.3     1.3     5.1     0.0     542    0.00    0.54    0.00    0.72     0.0     0.0     0.0     0.0     0.0     0.0     0.0     0.0     0.0     0.0    171.     30.      8.     18.     19.     16.     17.     17.     35.     40.     0.2     0.0     0.0     0.0     0.0     0.0     0.0     0.0     0.0     0.0     0.0     0.0     0.0     0.0     0.0     0.0     0.0     0.0     0.0     0.0     0.2     0.1     0.0     0.0     0.0     0.0     0.0     0.0     0.0     0.0
   15 162    86    0.06    0.07    0.20    0.10    70.7   0.007   0.071   0.098   0.249     1.5     1.6     5.7     0.0     366    0.00    0.37    0.00    0.52     0.0     0.0     0.0     0.0     0.0     0.0     0.0     0.0     0.0     0.0     31.     21.      6.     15.     17.     15.     15.     16.     32.     37.     0.0     0.0     0.0     0.0     0.0     0.0     0.0     0.0     0.0     0.0     0.0     0.0     0.0     0.0     0.0     0.0     0.0     0.0     0.0     0.0     0.1     0.1     0.0     0.0     0.0     0.0     0.0     0.0     0.0     0.0
   15 163    87    0.06    0.07    0.21    0.10    71.0   0.007   0.071   0.098   0.249     1.5     1.9     5.7     0.0     305    0.00    0.30    0.00    0.39     0.0     0.0     0.0     0.0     0.0     0.0     0.0     0.0     0.0     0.0      0.     12.      4.     13.     15.     13.     14.     14.     30.     34.     0.0     0.0     0.0     0.0     0.0     0.0     0.0     0.0     0.0     0.0     0.0     0.0     0.0     0.0     0.0     0.0     0.0     0.0     0.0     0.0     0.0     0.0     0.0     0.0     0.0     0.0     0.0     0.0     0.0     0.0
   15 164    88    0.06    0.07    0.21    0.10    71.3   0.007   0.071   0.098   0.250     1.4     1.8     4.9     0.0     295    0.00    0.29    0.00    0.37     0.0     0.0     0.0     0.0     0.0     0.0     0.0     0.0     0.0     0.0      0.     11.      3.     12.     14.     13.     13.     14.     29.     33.     0.0     0.0     0.0     0.0     0.0     0.0     0.0     0.0     0.0     0.0     0.0     0.0     0.0     0.0     0.0     0.0     0.0     0.0     0.0     0.0     0.0     0.0     0.0     0.0     0.0     0.0     0.0     0.0     0.0     0.0
   15 165    89    0.06    0.07    0.22    0.10    71.6   0.007   0.072   0.098   0.250     0.6     0.8     1.9     0.0     303    0.00    0.30    0.00    0.37     0.0     0.0     0.0     0.0     0.0     0.0     0.0     0.0     0.0     0.0      2.      9.      3.     12.     15.     13.     14.     14.     29.     33.     0.0     0.0     0.0     0.0     0.0     0.0     0.0     0.0     0.0     0.0     0.0     0.0     0.0     0.0     0.0     0.0     0.0     0.0     0.0     0.0     0.0     0.0     0.0     0.0     0.0     0.0     0.0     0.0     0.0     0.0
   15 166    90    0.06    0.08    0.22    0.10    71.9   0.007   0.072   0.098   0.250     0.4     0.7     1.5     0.0     329    0.00    0.33    0.00    0.36     0.0     0.0     0.0     0.0     0.0     0.0     0.0     0.0     0.0     0.0      4.     14.      3.      9.     15.     15.     15.     15.     32.     35.     0.0     0.0     0.0     0.0     0.0     0.0     0.0     0.0     0.0     0.0     0.0     0.0     0.0     0.0     0.0     0.0     0.0     0.0     0.0     0.0     0.0     0.0     0.0     0.0     0.0     0.0     0.0     0.0     0.0     0.0
   15 167    91    0.06    0.08    0.22    0.10    72.3   0.007   0.072   0.098   0.251     0.4     0.6     1.4     0.0     329    0.00    0.33    0.00    0.33     0.0     0.0     0.0     0.0     0.0     0.0     0.0     0.0     0.0     0.0      5.     19.      4.      7.     10.     12.     15.     16.     32.     34.     0.0     0.0     0.0     0.0     0.0     0.0     0.0     0.0     0.0     0.0     0.0     0.0     0.0     0.0     0.0     0.0     0.0     0.0     0.0     0.0     0.0     0.0     0.0     0.0     0.0     0.0     0.0     0.0     0.0     0.0
   15 168    92    0.06    0.08    0.22    0.10    72.6   0.007   0.073   0.098   0.251     0.7     1.0     2.2     0.0     318    0.00    0.32    0.00    0.34     0.0     0.0     0.0     0.0     0.0     0.0     0.0     0.0     0.0     0.0      0.     22.      6.     10.     11.     10.     12.     14.     30.     32.     0.0     0.0     0.0     0.0     0.0     0.0     0.0     0.0     0.0     0.0     0.0     0.0     0.0     0.0     0.0     0.0     0.0     0.0     0.0     0.0     0.0     0.0     0.0     0.0     0.0     0.0     0.0     0.0     0.0     0.0
   15 169    93    0.06    0.08    0.22    0.10    72.9   0.007   0.073   0.098   0.251     0.8     1.4     2.6     0.0     288    0.00    0.29    0.02    0.33     0.0     0.0     0.0     0.0     0.0     0.0     0.0     0.0     0.0     0.0      0.     16.      4.      9.      9.      9.     10.     12.     27.     29.     0.0     0.0     0.0     0.0     0.0     0.0     0.0     0.0     0.0     0.0     0.0     0.0     0.0     0.0     0.0     0.0     0.0     0.0     0.0     0.0     0.0     0.0     0.0     0.0     0.0     0.0     0.0     0.0     0.0     0.0
   15 170    94    0.06    0.08    0.22    0.11    73.1   0.007   0.073   0.098   0.252     0.3     0.5     0.9     0.1     260    0.00    0.26    0.12    0.27     0.0     0.1     0.0     0.0     0.0     0.0     0.0     0.0     0.0     0.0      3.     14.      4.      7.      7.      6.      7.     10.     25.     25.     0.0     0.0     0.0     0.0     0.0     0.0     0.0     0.0     0.0     0.0     0.0     0.1     0.0     0.0     0.0     0.0     0.0     0.0     0.0     0.0     0.0     0.0     0.0     0.0     0.0     0.0     0.0     0.0     0.0     0.0
   15 171    95    0.06    0.08    0.23    0.11    73.4   0.007   0.073   0.098   0.252     0.5     0.9     1.5     0.0     231    0.00    0.23    0.02    0.26     0.0     0.0     0.0     0.0     0.0     0.0     0.0     0.0     0.0     0.0      0.     11.      3.      6.      6.      5.      7.      9.     22.     22.     0.0     0.0     0.0     0.0     0.0     0.0     0.0     0.0     0.0     0.0     0.0     0.0     0.0     0.0     0.0     0.0     0.0     0.0     0.0     0.0     0.0     0.0     0.0     0.0     0.0     0.0     0.0     0.0     0.0     0.0
   15 172    96    0.06    0.08    0.23    0.11    73.6   0.007   0.074   0.098   0.252     0.6     1.2     1.8     0.0     214    0.00    0.21    0.00    0.25     0.0     0.0     0.0     0.0     0.0     0.0     0.0     0.0     0.0     0.0      0.      7.      2.      4.      5.      5.      6.      8.     20.     21.     0.0     0.0     0.0     0.0     0.0     0.0     0.0     0.0     0.0     0.0     0.0     0.0     0.0     0.0     0.0     0.0     0.0     0.0     0.0     0.0     0.0     0.0     0.0     0.0     0.0     0.0     0.0     0.0     0.0     0.0
   15 173    97    0.06    0.08    0.23    0.11    73.8   0.007   0.074   0.098   0.252     0.6     1.3     1.8     0.0     201    0.00    0.20    0.00    0.23     0.0     0.0     0.0     0.0     0.0     0.0     0.0     0.0     0.0     0.0      0.      5.      2.      4.      4.      5.      6.      7.     18.     19.     0.0     0.0     0.0     0.0     0.0     0.0     0.0     0.0     0.0     0.0     0.0     0.0     0.0     0.0     0.0     0.0     0.0     0.0     0.0     0.0     0.0     0.0     0.0     0.0     0.0     0.0     0.0     0.0     0.0     0.0
   15 174    98    0.07    0.08    0.23    0.11    74.0   0.007   0.074   0.098   0.253     0.2     0.4     0.5     0.0     199    0.00    0.20    0.00    0.21     0.0     0.0     0.0     0.0     0.0     0.0     0.0     0.0     0.0     0.0      2.      6.      2.      3.      4.      4.      6.      7.     18.     18.     0.0     0.0     0.0     0.0     0.0     0.0     0.0     0.0     0.0     0.0     0.0     0.0     0.0     0.0     0.0     0.0     0.0     0.0     0.0     0.0     0.0     0.0     0.0     0.0     0.0     0.0     0.0     0.0     0.0     0.0
   15 175    99    0.07    0.08    0.23    0.11    74.2   0.007   0.074   0.098   0.253     0.3     0.6     0.7     0.0     195    0.00    0.19    0.00    0.21     0.0     0.0     0.0     0.0     0.0     0.0     0.0     0.0     0.0     0.0      2.      7.      2.      3.      4.      4.      4.      6.     17.     18.     0.0     0.0     0.0     0.0     0.0     0.0     0.0     0.0     0.0     0.0     0.0     0.0     0.0     0.0     0.0     0.0     0.0     0.0     0.0     0.0     0.0     0.0     0.0     0.0     0.0     0.0     0.0     0.0     0.0     0.0
   15 176   100    0.07    0.08    0.23    0.11    74.4   0.007   0.074   0.098   0.253     0.4     0.9     1.1     0.0     192    0.00    0.19    0.00    0.21     0.0     0.0     0.0     0.0     0.0     0.0     0.0     0.0     0.0     0.0      0.      6.      2.      3.      4.      4.      5.      6.     17.     17.     0.0     0.0     0.0     0.0     0.0     0.0     0.0     0.0     0.0     0.0     0.0     0.0     0.0     0.0     0.0     0.0     0.0     0.0     0.0     0.0     0.0     0.0     0.0     0.0     0.0     0.0     0.0     0.0     0.0     0.0
   15 177   101    0.07    0.09    0.23    0.11    74.6   0.007   0.075   0.098   0.253     0.5     1.1     1.2     0.0     194    0.00    0.19    0.00    0.22     0.0     0.0     0.0     0.0     0.0     0.0     0.0     0.0     0.0     0.0      0.      5.      2.      4.      4.      4.      5.      6.     17.     17.     0.0     0.0     0.0     0.0     0.0     0.0     0.0     0.0     0.0     0.0     0.0     0.0     0.0     0.0     0.0     0.0     0.0     0.0     0.0     0.0     0.0     0.0     0.0     0.0     0.0     0.0     0.0     0.0     0.0     0.0
   15 178   102    0.07    0.09    0.23    0.11    74.8   0.007   0.075   0.098   0.254     0.5     1.0     1.1     0.0     202    0.00    0.20    0.00    0.24     0.0     0.0     0.0     0.0     0.0     0.0     0.0     0.0     0.0     0.0      0.      6.      2.      4.      5.      5.      6.      7.     18.     18.     0.0     0.0     0.0     0.0     0.0     0.0     0.0     0.0     0.0     0.0     0.0     0.0     0.0     0.0     0.0     0.0     0.0     0.0     0.0     0.0     0.0     0.0     0.0     0.0     0.0     0.0     0.0     0.0     0.0     0.0
   15 179   103    0.07    0.09    0.24    0.11    75.0   0.007   0.075   0.098   0.254     0.4     0.9     0.9     0.0     212    0.00    0.21    0.00    0.26     0.0     0.0     0.0     0.0     0.0     0.0     0.0     0.0     0.0     0.0      1.      8.      2.      5.      6.      5.      6.      7.     18.     18.     0.0     0.0     0.0     0.0     0.0     0.0     0.0     0.0     0.0     0.0     0.0     0.0     0.0     0.0     0.0     0.0     0.0     0.0     0.0     0.0     0.0     0.0     0.0     0.0     0.0     0.0     0.0     0.0     0.0     0.0
   15 180   104    0.07    0.09    0.24    0.11    75.2   0.007   0.075   0.098   0.254     0.4     0.9     0.8     0.0     232    0.00    0.23    0.00    0.30     0.0     0.0     0.0     0.0     0.0     0.0     0.0     0.0     0.0     0.0      3.     11.      3.      6.      7.      6.      7.      8.     20.     19.     0.0     0.0     0.0     0.0     0.0     0.0     0.0     0.0     0.0     0.0     0.0     0.0     0.0     0.0     0.0     0.0     0.0     0.0     0.0     0.0     0.0     0.0     0.0     0.0     0.0     0.0     0.0     0.0     0.0     0.0
   15 181   105    0.07    0.09    0.24    0.11    75.5   0.007   0.075   0.098   0.254     0.4     0.8     0.7     0.0     258    0.00    0.26    0.00    0.35     0.0     0.0     0.0     0.0     0.0     0.0     0.0     0.0     0.0     0.0      7.     14.      3.      7.      8.      8.      8.      9.     21.     21.     0.0     0.0     0.0     0.0     0.0     0.0     0.0     0.0     0.0     0.0     0.0     0.0     0.0     0.0     0.0     0.0     0.0     0.0     0.0     0.0     0.0     0.0     0.0     0.0     0.0     0.0     0.0     0.0     0.0     0.0
   15 182   106    0.07    0.09    0.24    0.11    75.8   0.007   0.076   0.098   0.255     0.4     0.8     0.7     0.0     298    0.00    0.30    0.00    0.43     0.0     0.0     0.0     0.0     0.0     0.0     0.0     0.0     0.0     0.0     12.     19.      5.      9.     10.      9.     10.     11.     24.     24.     0.0     0.0     0.0     0.0     0.0     0.0     0.0     0.0     0.0     0.0     0.0     0.0     0.0     0.0     0.0     0.0     0.0     0.0     0.0     0.0     0.1     0.1     0.0     0.0     0.0     0.0     0.0     0.0     0.0     0.0
   15 183   107    0.07    0.09    0.24    0.11    76.1   0.007   0.076   0.098   0.255     0.4     0.7     0.7     0.0     338    0.00    0.34    0.00    0.52     0.0     0.0     0.0     0.0     0.0     0.0     0.0     0.0     0.0     0.0     16.     26.      6.     12.     13.     11.     12.     13.     27.     26.     0.0     0.0     0.0     0.0     0.0     0.0     0.0     0.0     0.0     0.0     0.0     0.0     0.0     0.0     0.0     0.0     0.0     0.0     0.0     0.0     0.1     0.1     0.0     0.0     0.0     0.0     0.0     0.0     0.0     0.0
   15 184   108    0.07    0.09    0.25    0.11    84.1   0.007   0.084   0.098   0.297     1.9     0.7     9.0     0.0    8018    0.00    8.02    0.00   41.12     0.0     0.0     0.0     0.0     0.0     0.0     0.0     0.0     0.0     0.0   7658.     33.      8.     15.     16.     14.     14.     15.     30.     29.     7.7     0.0     0.0     0.0     0.0     0.0     0.0     0.0     0.0     0.0     0.0     0.0     0.0     0.0     0.0     0.0     0.0     0.0     0.0     0.0    40.6     0.1     0.0     0.0     0.0     0.0     0.0     0.0     0.0     0.0
   15 185   109    0.07    0.09    0.26    0.11    90.7   0.007   0.091   0.098   0.331     2.9     0.6    14.5     0.0    6590    0.00    6.59    0.00   34.55     0.0     0.0     0.0     0.0     0.0     0.0     0.0     0.0     0.0     0.0   6187.     40.     10.     19.     19.     17.     17.     17.     33.     32.     6.2     0.0     0.0     0.0     0.0     0.0     0.0     0.0     0.0     0.0     0.0     0.0     0.0     0.0     0.0     0.0     0.0     0.0     0.0     0.0    34.0     0.1     0.0     0.0     0.0     0.0     0.0     0.0     0.0     0.0
   15 186   110    0.08    0.09    0.28    0.11    96.0   0.007   0.096   0.098   0.359     3.4     0.6    17.5     0.0    5307    0.00    5.31    0.00   27.98     0.0     0.0     0.0     0.0     0.0     0.0     0.0     0.0     0.0     0.0   4859.     47.     12.     22.     22.     19.     20.     20.     37.     36.     4.9     0.0     0.0     0.0     0.0     0.0     0.0     0.0     0.0     0.0     0.0     0.0     0.0     0.0     0.0     0.0     0.0     0.0     0.0     0.0    27.3     0.2     0.0     0.1     0.0     0.0     0.0     0.0     0.0     0.0
   15 187   111    0.08    0.09    0.30    0.11    99.8   0.007   0.100   0.098   0.379     3.5     0.5    18.1     0.0    3797    0.00    3.80    0.00   19.73     0.0     0.0     0.0     0.0     0.0     0.0     0.0     0.0     0.0     0.0   3310.     53.     14.     25.     25.     22.     22.     22.     41.     39.     3.3     0.1     0.0     0.0     0.0     0.0     0.0     0.0     0.0     0.0     0.0     0.0     0.0     0.0     0.0     0.0     0.0     0.0     0.0     0.0    19.0     0.2     0.0     0.1     0.0     0.0     0.0     0.0     0.0     0.0
   15 188   112    0.08    0.09    0.31    0.11   101.2   0.007   0.101   0.098   0.385     3.0     0.5    15.6     0.0    1386    0.00    1.39    0.00    5.92     0.0     0.0     0.0     0.0     0.0     0.0     0.0     0.0     0.0     0.0    878.     55.     14.     26.     26.     23.     24.     24.     44.     41.     0.9     0.1     0.0     0.0     0.0     0.0     0.0     0.0     0.0     0.0     0.0     0.0     0.0     0.0     0.0     0.0     0.0     0.0     0.0     0.0     5.1     0.2     0.0     0.1     0.1     0.0     0.0     0.0     0.0     0.0
   15 189   113    0.09    0.09    0.32    0.11   102.7   0.007   0.103   0.098   0.390     2.3     0.4    11.8     0.0    1456    0.00    1.46    0.00    5.05     0.0     0.0     0.0     0.0     0.0     0.0     0.0     0.0     0.0     0.0    928.     57.     14.     27.     27.     24.     25.     25.     47.     44.     0.9     0.1     0.0     0.0     0.0     0.0     0.0     0.0     0.0     0.0     0.0     0.0     0.0     0.0     0.0     0.0     0.0     0.0     0.0     0.0     4.2     0.2     0.1     0.1     0.1     0.0     0.0     0.0     0.1     0.0
   15 190   114    0.09    0.09    0.33    0.11   103.5   0.007   0.104   0.098   0.392     1.9     0.3     9.4     0.0     881    0.00    0.88    0.00    2.24     0.0     0.0     0.0     0.0     0.0     0.0     0.0     0.0     0.0     0.0    373.     51.     12.     26.     26.     23.     24.     25.     47.     45.     0.4     0.1     0.0     0.0     0.0     0.0     0.0     0.0     0.0     0.0     0.0     0.0     0.0     0.0     0.0     0.0     0.0     0.0     0.0     0.0     1.5     0.2     0.0     0.1     0.1     0.0     0.0     0.0     0.1     0.0
   15 191   115    0.09    0.09    0.34    0.11   104.2   0.007   0.104   0.098   0.394     1.7     0.3     8.1     0.0     646    0.00    0.65    0.00    1.49     0.0     0.0     0.0     0.0     0.0     0.0     0.0     0.0     0.0     0.0    184.     46.     10.     22.     22.     20.     21.     22.     44.     42.     0.2     0.0     0.0     0.0     0.0     0.0     0.0     0.0     0.0     0.0     0.0     0.0     0.0     0.0     0.0     0.0     0.0     0.0     0.0     0.0     0.8     0.2     0.0     0.1     0.0     0.0     0.0     0.0     0.0     0.0
   15 192   116    0.09    0.09    0.35    0.11   104.7   0.007   0.105   0.098   0.395     1.4     0.3     6.7     0.0     539    0.00    0.54    0.00    1.16     0.0     0.0     0.0     0.0     0.0     0.0     0.0     0.0     0.0     0.0    123.     41.      8.     19.     19.     17.     19.     20.     41.     39.     0.1     0.0     0.0     0.0     0.0     0.0     0.0     0.0     0.0     0.0     0.0     0.0     0.0     0.0     0.0     0.0     0.0     0.0     0.0     0.0     0.5     0.2     0.0     0.0     0.0     0.0     0.0     0.0     0.0     0.0
   15 193   117    0.09    0.09    0.35    0.11   105.2   0.007   0.105   0.098   0.396     1.3     0.3     5.7     0.0     490    0.00    0.49    0.00    1.02     0.0     0.0     0.0     0.0     0.0     0.0     0.0     0.0     0.0     0.0     91.     39.      7.     18.     18.     16.     18.     19.     40.     39.     0.1     0.0     0.0     0.0     0.0     0.0     0.0     0.0     0.0     0.0     0.0     0.0     0.0     0.0     0.0     0.0     0.0     0.0     0.0     0.0     0.4     0.2     0.0     0.0     0.0     0.0     0.0     0.0     0.0     0.0
   15 194   118    0.09    0.09    0.36    0.11   105.6   0.007   0.106   0.098   0.397     1.1     0.3     5.0     0.0     443    0.00    0.44    0.00    0.91     0.0     0.0     0.0     0.0     0.0     0.0     0.0     0.0     0.0     0.0     67.     36.      6.     17.     17.     15.     16.     18.     38.     37.     0.1     0.0     0.0     0.0     0.0     0.0     0.0     0.0     0.0     0.0     0.0     0.0     0.0     0.0     0.0     0.0     0.0     0.0     0.0     0.0     0.3     0.1     0.0     0.0     0.0     0.0     0.0     0.0     0.0     0.0
   15 195   119    0.09    0.10    0.36    0.11   106.1   0.007   0.106   0.098   0.397     1.0     0.3     4.1     0.0     428    0.00    0.43    0.00    0.84     0.0     0.0     0.0     0.0     0.0     0.0     0.0     0.0     0.0     0.0     54.     35.      6.     16.     17.     15.     16.     18.     38.     37.     0.1     0.0     0.0     0.0     0.0     0.0     0.0     0.0     0.0     0.0     0.0     0.0     0.0     0.0     0.0     0.0     0.0     0.0     0.0     0.0     0.3     0.1     0.0     0.0     0.0     0.0     0.0     0.0     0.0     0.0
   15 196   120    0.10    0.10    0.37    0.11   106.5   0.007   0.107   0.098   0.398     0.9     0.2     3.5     0.0     442    0.00    0.44    0.00    0.85     0.0     0.0     0.0     0.0     0.0     0.0     0.0     0.0     0.0     0.0     47.     37.      6.     17.     17.     16.     17.     19.     41.     40.     0.0     0.0     0.0     0.0     0.0     0.0     0.0     0.0     0.0     0.0     0.0     0.0     0.0     0.0     0.0     0.0     0.0     0.0     0.0     0.0     0.2     0.2     0.0     0.0     0.0     0.0     0.0     0.0     0.0     0.0
   15 197   121    0.10    0.10    0.37    0.11   107.0   0.007   0.107   0.098   0.399     0.8     0.2     3.0     0.0     458    0.00    0.46    0.00    0.86     0.0     0.0     0.0     0.0     0.0     0.0     0.0     0.0     0.0     0.0     37.     39.      7.     18.     19.     16.     18.     20.     44.     43.     0.0     0.0     0.0     0.0     0.0     0.0     0.0     0.0     0.0     0.0     0.0     0.0     0.0     0.0     0.0     0.0     0.0     0.0     0.0     0.0     0.2     0.2     0.0     0.1     0.0     0.0     0.0     0.0     0.0     0.0
   15 198   122    0.10    0.10    0.37    0.11   107.4   0.007   0.107   0.098   0.400     0.7     0.2     2.5     0.0     461    0.00    0.46    0.00    0.83     0.0     0.0     0.0     0.0     0.0     0.0     0.0     0.0     0.0     0.0     28.     38.      7.     19.     19.     17.     18.     20.     46.     44.     0.0     0.0     0.0     0.0     0.0     0.0     0.0     0.0     0.0     0.0     0.0     0.0     0.0     0.0     0.0     0.0     0.0     0.0     0.0     0.0     0.2     0.2     0.0     0.1     0.0     0.0     0.0     0.0     0.1     0.0
   15 199   123    0.10    0.10    0.37    0.11   107.9   0.007   0.108   0.098   0.401     0.6     0.2     2.2     0.0     465    0.00    0.46    0.00    0.82     0.0     0.0     0.0     0.0     0.0     0.0     0.0     0.0     0.0     0.0     22.     36.      7.     19.     19.     17.     18.     20.     48.     46.     0.0     0.0     0.0     0.0     0.0     0.0     0.0     0.0     0.0     0.0     0.0     0.0     0.0     0.0     0.0     0.0     0.0     0.0     0.0     0.0     0.1     0.2     0.0     0.1     0.0     0.0     0.0     0.0     0.1     0.0
   15 200   124    0.10    0.10    0.38    0.11   108.4   0.007   0.108   0.098   0.402     0.6     0.2     1.9     0.0     461    0.00    0.46    0.00    0.79     0.0     0.0     0.0     0.0     0.0     0.0     0.0     0.0     0.0     0.0     17.     34.      7.     19.     19.     16.     17.     19.     47.     46.     0.0     0.0     0.0     0.0     0.0     0.0     0.0     0.0     0.0     0.0     0.0     0.0     0.0     0.0     0.0     0.0     0.0     0.0     0.0     0.0     0.1     0.1     0.0     0.1     0.0     0.0     0.0     0.0     0.1     0.0
   15 201   125    0.10    0.10    0.38    0.11   108.8   0.007   0.109   0.098   0.402     0.5     0.2     1.6     0.0     447    0.00    0.45    0.00    0.75     0.0     0.0     0.0     0.0     0.0     0.0     0.0     0.0     0.0     0.0     13.     31.      7.     18.     18.     16.     16.     18.     45.     44.     0.0     0.0     0.0     0.0     0.0     0.0     0.0     0.0     0.0     0.0     0.0     0.0     0.0     0.0     0.0     0.0     0.0     0.0     0.0     0.0     0.1     0.1     0.0     0.1     0.0     0.0     0.0     0.0     0.1     0.0
   15 202   126    0.10    0.10    0.38    0.11   109.2   0.007   0.109   0.098   0.403     0.5     0.1     1.4     0.0     434    0.00    0.43    0.00    0.71     0.0     0.0     0.0     0.0     0.0     0.0     0.0     0.0     0.0     0.0      9.     28.      7.     17.     17.     15.     15.     17.     43.     42.     0.0     0.0     0.0     0.0     0.0     0.0     0.0     0.0     0.0     0.0     0.0     0.0     0.0     0.0     0.0     0.0     0.0     0.0     0.0     0.0     0.1     0.1     0.0     0.1     0.0     0.0     0.0     0.0     0.1     0.0
   15 203   127    0.10    0.10    0.38    0.11   109.7   0.007   0.110   0.098   0.404     0.4     0.1     1.2     0.0     424    0.00    0.42    0.00    0.67     0.0     0.0     0.0     0.0     0.0     0.0     0.0     0.0     0.0     0.0      7.     26.      7.     16.     16.     14.     15.     16.     42.     41.     0.0     0.0     0.0     0.0     0.0     0.0     0.0     0.0     0.0     0.0     0.0     0.0     0.0     0.0     0.0     0.0     0.0     0.0     0.0     0.0     0.0     0.1     0.0     0.0     0.0     0.0     0.0     0.0     0.1     0.0
   15 204   128    0.10    0.10    0.38    0.11   110.1   0.007   0.110   0.098   0.405     0.4     0.1     1.1     0.0     411    0.00    0.41    0.00    1.60     0.0     0.0     0.0     0.0     0.0     0.0     0.0     0.0     0.0     0.0      4.     24.      7.     15.     15.     13.     14.     15.     40.     39.     0.0     0.0     0.0     0.0     0.0     0.0     0.0     0.0     0.0     0.0     0.0     0.0     0.0     0.0     0.0     0.0     0.0     0.0     0.0     0.0     0.1     0.3     0.1     0.1     0.1     0.1     0.1     0.1     0.1     0.1
   15 205   129    0.10    0.10    0.38    0.11   110.5   0.007   0.110   0.098   0.406     0.4     0.1     0.9     0.0     394    0.00    0.39    0.00    1.04     0.0     0.0     0.0     0.0     0.0     0.0     0.0     0.0     0.0     0.0      4.     21.      7.     14.     14.     12.     12.     13.     37.     36.     0.0     0.0     0.0     0.0     0.0     0.0     0.0     0.0     0.0     0.0     0.0     0.0     0.0     0.0     0.0     0.0     0.0     0.0     0.0     0.0     0.0     0.2     0.0     0.1     0.1     0.0     0.0     0.0     0.1     0.1
   15 206   130    0.10    0.10    0.38    0.11   110.9   0.007   0.111   0.098   0.407     0.4     0.1     0.9     0.0     380    0.00    0.38    0.00    0.68     0.0     0.0     0.0     0.0     0.0     0.0     0.0     0.0     0.0     0.0      5.     19.      6.     13.     13.     11.     12.     12.     33.     33.     0.0     0.0     0.0     0.0     0.0     0.0     0.0     0.0     0.0     0.0     0.0     0.0     0.0     0.0     0.0     0.0     0.0     0.0     0.0     0.0     0.0     0.1     0.0     0.0     0.0     0.0     0.0     0.0     0.1     0.0
   15 207   131    0.10    0.10    0.38    0.11   111.2   0.007   0.111   0.098   0.408     0.3     0.1     0.8     0.0     355    0.00    0.35    0.00    0.54     0.0     0.0     0.0     0.0     0.0     0.0     0.0     0.0     0.0     0.0      5.     17.      6.     12.     12.     10.     10.     11.     30.     30.     0.0     0.0     0.0     0.0     0.0     0.0     0.0     0.0     0.0     0.0     0.0     0.0     0.0     0.0     0.0     0.0     0.0     0.0     0.0     0.0     0.0     0.1     0.0     0.0     0.0     0.0     0.0     0.0     0.0     0.0
   15 208   132    0.10    0.10    0.39    0.11   111.5   0.007   0.112   0.098   0.408     0.3     0.1     0.7     0.0     318    0.00    0.32    0.00    0.48     0.0     0.0     0.0     0.0     0.0     0.0     0.0     0.0     0.0     0.0      4.     14.      5.     10.     10.      9.      9.      9.     25.     25.     0.0     0.0     0.0     0.0     0.0     0.0     0.0     0.0     0.0     0.0     0.0     0.0     0.0     0.0     0.0     0.0     0.0     0.0     0.0     0.0     0.0     0.1     0.0     0.0     0.0     0.0     0.0     0.0     0.0     0.0
   15 209   133    0.10    0.10    0.39    0.11   111.8   0.007   0.112   0.098   0.409     0.3     0.1     0.6     0.0     291    0.00    0.29    0.00    0.44     0.0     0.0     0.0     0.0     0.0     0.0     0.0     0.0     0.0     0.0      5.     12.      5.      9.      9.      8.      8.      8.     21.     21.     0.0     0.0     0.0     0.0     0.0     0.0     0.0     0.0     0.0     0.0     0.0     0.0     0.0     0.0     0.0     0.0     0.0     0.0     0.0     0.0     0.0     0.1     0.0     0.0     0.0     0.0     0.0     0.0     0.0     0.0
   15 210   134    0.10    0.10    0.39    0.11   112.1   0.007   0.112   0.098   0.409     0.3     0.1     0.6     0.0     278    0.00    0.28    0.00    0.43     0.0     0.0     0.0     0.0     0.0     0.0     0.0     0.0     0.0     0.0      7.     11.      5.      8.      8.      7.      7.      7.     18.     19.     0.0     0.0     0.0     0.0     0.0     0.0     0.0     0.0     0.0     0.0     0.0     0.0     0.0     0.0     0.0     0.0     0.0     0.0     0.0     0.0     0.0     0.1     0.0     0.0     0.0     0.0     0.0     0.0     0.0     0.0
   15 211   135    0.10    0.10    0.39    0.11   112.4   0.007   0.112   0.098   0.409     0.3     0.1     0.6     0.0     256    0.00    0.26    0.00    0.39     0.0     0.0     0.0     0.0     0.0     0.0     0.0     0.0     0.0     0.0      7.     10.      4.      7.      8.      6.      7.      7.     15.     17.     0.0     0.0     0.0     0.0     0.0     0.0     0.0     0.0     0.0     0.0     0.0     0.0     0.0     0.0     0.0     0.0     0.0     0.0     0.0     0.0     0.0     0.0     0.0     0.0     0.0     0.0     0.0     0.0     0.0     0.0
   15 212   136    0.10    0.10    0.39    0.11   112.6   0.007   0.113   0.098   0.410     0.3     0.1     0.6     0.0     240    0.00    0.24    0.00    0.36     0.0     0.0     0.0     0.0     0.0     0.0     0.0     0.0     0.0     0.0      5.      9.      4.      7.      7.      6.      6.      6.     14.     15.     0.0     0.0     0.0     0.0     0.0     0.0     0.0     0.0     0.0     0.0     0.0     0.0     0.0     0.0     0.0     0.0     0.0     0.0     0.0     0.0     0.0     0.0     0.0     0.0     0.0     0.0     0.0     0.0     0.0     0.0
   15 213   137    0.10    0.10    0.39    0.11   112.8   0.007   0.113   0.098   0.410     0.3     0.0     0.6     0.0     238    0.00    0.24    0.00    0.36     0.0     0.0     0.0     0.0     0.0     0.0     0.0     0.0     0.0     0.0      6.      9.      4.      7.      7.      6.      6.      6.     13.     15.     0.0     0.0     0.0     0.0     0.0     0.0     0.0     0.0     0.0     0.0     0.0     0.0     0.0     0.0     0.0     0.0     0.0     0.0     0.0     0.0     0.0     0.0     0.0     0.0     0.0     0.0     0.0     0.0     0.0     0.0
   15 214   138    0.10    0.10    0.39    0.11   113.1   0.007   0.113   0.098   0.410     0.3     0.0     0.6     0.0     233    0.00    0.23    0.00    0.36     0.0     0.0     0.0     0.0     0.0     0.0     0.0     0.0     0.0     0.0      6.      9.      4.      7.      7.      6.      6.      6.     12.     14.     0.0     0.0     0.0     0.0     0.0     0.0     0.0     0.0     0.0     0.0     0.0     0.0     0.0     0.0     0.0     0.0     0.0     0.0     0.0     0.0     0.0     0.0     0.0     0.0     0.0     0.0     0.0     0.0     0.0     0.0
   15 215   139    0.10    0.10    0.39    0.11   113.3   0.007   0.113   0.098   0.411     0.3     0.0     0.6     0.0     234    0.00    0.23    0.00    0.36     0.0     0.0     0.0     0.0     0.0     0.0     0.0     0.0     0.0     0.0      6.      9.      4.      7.      7.      6.      6.      6.     12.     14.     0.0     0.0     0.0     0.0     0.0     0.0     0.0     0.0     0.0     0.0     0.0     0.0     0.0     0.0     0.0     0.0     0.0     0.0     0.0     0.0     0.0     0.0     0.0     0.0     0.0     0.0     0.0     0.0     0.0     0.0
[...]
   15 203   127    0.02    0.06    0.04    0.07    36.9   0.004   0.037   0.066   0.062     0.4     0.2     0.7     0.0     554    0.00    0.55    0.00    0.94     0.0     0.0     0.0     0.0     0.0     0.0     0.0     0.0     0.0     0.0     20.     41.     13.     27.     28.     27.     28.     29.     53.     50.     0.0     0.0     0.0     0.0     0.0     0.0     0.0     0.0     0.1     0.1     0.0     0.0     0.0     0.0     0.0     0.0     0.0     0.0     0.0     0.0     0.1     0.2     0.0     0.1     0.1     0.0     0.0     0.0     0.1     0.1
   15 204   128    0.02    0.06    0.04    0.07    37.5   0.004   0.038   0.066   0.064     0.4     0.1     0.8     0.0     551    0.00    0.55    0.00    2.30     0.0     0.0     0.0     0.0     0.0     0.0     0.0     0.0     0.0     0.0     18.     38.     12.     26.     28.     27.     28.     29.     53.     51.     0.0     0.0     0.0     0.0     0.0     0.0     0.0     0.0     0.1     0.1     0.0     0.0     0.0     0.0     0.0     0.0     0.0     0.0     0.0     0.0     0.3     0.4     0.1     0.2     0.1     0.1     0.1     0.1     0.1     0.1
   15 205   129    0.02    0.06    0.04    0.07    38.0   0.004   0.038   0.066   0.066     0.4     0.1     0.8     0.0     544    0.00    0.54    0.00    1.55     0.0     0.0     0.0     0.0     0.0     0.0     0.0     0.0     0.0     0.0     21.     35.     11.     25.     27.     26.     28.     28.     53.     51.     0.0     0.0     0.0     0.0     0.0     0.0     0.0     0.0     0.1     0.1     0.0     0.0     0.0     0.0     0.0     0.0     0.0     0.0     0.0     0.0     0.2     0.3     0.1     0.1     0.1     0.1     0.1     0.1     0.1     0.1
   15 206   130    0.02    0.06    0.04    0.07    38.6   0.004   0.039   0.066   0.067     0.4     0.1     0.8     0.0     534    0.00    0.53    0.00    1.02     0.0     0.0     0.0     0.0     0.0     0.0     0.0     0.0     0.0     0.0     20.     32.     10.     24.     26.     25.     27.     28.     53.     51.     0.0     0.0     0.0     0.0     0.0     0.0     0.0     0.0     0.1     0.1     0.0     0.0     0.0     0.0     0.0     0.0     0.0     0.0     0.0     0.0     0.1     0.2     0.0     0.1     0.1     0.1     0.0     0.0     0.1     0.1
   15 207   131    0.02    0.06    0.04    0.07    39.1   0.004   0.039   0.066   0.068     0.4     0.1     0.8     0.0     503    0.00    0.50    0.00    0.81     0.0     0.0     0.0     0.0     0.0     0.0     0.0     0.0     0.0     0.0     17.     29.      9.     22.     24.     23.     25.     26.     50.     49.     0.0     0.0     0.0     0.0     0.0     0.0     0.0     0.0     0.0     0.0     0.0     0.0     0.0     0.0     0.0     0.0     0.0     0.0     0.0     0.0     0.1     0.1     0.0     0.1     0.1     0.0     0.0     0.0     0.1     0.1
   15 208   132    0.02    0.06    0.04    0.07    39.5   0.004   0.040   0.066   0.068     0.4     0.1     0.8     0.0     453    0.00    0.45    0.00    0.72     0.0     0.0     0.0     0.0     0.0     0.0     0.0     0.0     0.0     0.0     13.     24.      8.     19.     21.     21.     23.     23.     45.     45.     0.0     0.0     0.0     0.0     0.0     0.0     0.0     0.0     0.0     0.0     0.0     0.0     0.0     0.0     0.0     0.0     0.0     0.0     0.0     0.0     0.1     0.1     0.0     0.1     0.0     0.0     0.0     0.0     0.1     0.0
   15 209   133    0.02    0.06    0.04    0.07    39.9   0.004   0.040   0.066   0.069     0.3     0.1     0.7     0.0     423    0.00    0.42    0.00    0.68     0.0     0.0     0.0     0.0     0.0     0.0     0.0     0.0     0.0     0.0     21.     21.      7.     16.     18.     19.     20.     21.     41.     41.     0.0     0.0     0.0     0.0     0.0     0.0     0.0     0.0     0.0     0.0     0.0     0.0     0.0     0.0     0.0     0.0     0.0     0.0     0.0     0.0     0.1     0.1     0.0     0.0     0.0     0.0     0.0     0.0     0.0     0.0
   15 210   134    0.02    0.06    0.04    0.07    40.3   0.004   0.041   0.066   0.070     0.3     0.1     0.7     0.0     404    0.00    0.40    0.00    0.65     0.0     0.0     0.0     0.0     0.0     0.0     0.0     0.0     0.0     0.0     22.     19.      6.     15.     17.     17.     19.     20.     39.     39.     0.0     0.0     0.0     0.0     0.0     0.0     0.0     0.0     0.0     0.0     0.0     0.0     0.0     0.0     0.0     0.0     0.0     0.0     0.0     0.0     0.1     0.1     0.0     0.0     0.0     0.0     0.0     0.0     0.0     0.0
   15 211   135    0.02    0.06    0.04    0.07    40.7   0.004   0.041   0.066   0.070     0.3     0.1     0.7     0.0     371    0.00    0.37    0.00    0.59     0.0     0.0     0.0     0.0     0.0     0.0     0.0     0.0     0.0     0.0     20.     16.      5.     13.     15.     15.     17.     18.     35.     36.     0.0     0.0     0.0     0.0     0.0     0.0     0.0     0.0     0.0     0.0     0.0     0.0     0.0     0.0     0.0     0.0     0.0     0.0     0.0     0.0     0.1     0.1     0.0     0.0     0.0     0.0     0.0     0.0     0.0     0.0
   15 212   136    0.02    0.07    0.04    0.07    41.1   0.004   0.041   0.066   0.071     0.3     0.1     0.7     0.0     350    0.00    0.35    0.00    0.56     0.0     0.0     0.0     0.0     0.0     0.0     0.0     0.0     0.0     0.0     20.     15.      5.     12.     14.     14.     16.     17.     33.     34.     0.0     0.0     0.0     0.0     0.0     0.0     0.0     0.0     0.0     0.0     0.0     0.0     0.0     0.0     0.0     0.0     0.0     0.0     0.0     0.0     0.1     0.1     0.0     0.0     0.0     0.0     0.0     0.0     0.0     0.0
   15 213   137    0.03    0.07    0.05    0.07    41.4   0.004   0.042   0.066   0.071     0.3     0.1     0.7     0.0     346    0.00    0.35    0.00    0.56     0.0     0.0     0.0     0.0     0.0     0.0     0.0     0.0     0.0     0.0     19.     14.      5.     12.     13.     14.     16.     17.     33.     33.     0.0     0.0     0.0     0.0     0.0     0.0     0.0     0.0     0.0     0.0     0.0     0.0     0.0     0.0     0.0     0.0     0.0     0.0     0.0     0.0     0.1     0.1     0.0     0.0     0.0     0.0     0.0     0.0     0.0     0.0
   15 214   138    0.03    0.07    0.05    0.07    41.7   0.004   0.042   0.066   0.072     0.3     0.1     0.7     0.0     336    0.00    0.34    0.00    0.54     0.0     0.0     0.0     0.0     0.0     0.0     0.0     0.0     0.0     0.0     17.     14.      5.     12.     13.     14.     15.     16.     32.     33.     0.0     0.0     0.0     0.0     0.0     0.0     0.0     0.0     0.0     0.0     0.0     0.0     0.0     0.0     0.0     0.0     0.0     0.0     0.0     0.0     0.1     0.1     0.0     0.0     0.0     0.0     0.0     0.0     0.0     0.0
   15 215   139    0.03    0.07    0.05    0.07    42.1   0.004   0.042   0.066   0.072     0.4     0.1     0.7     0.0     338    0.00    0.34    0.00    0.54     0.0     0.0     0.0     0.0     0.0     0.0     0.0     0.0     0.0     0.0     16.     13.      5.     12.     13.     14.     16.     16.     32.     33.     0.0     0.0     0.0     0.0     0.0     0.0     0.0     0.0     0.0     0.0     0.0     0.0     0.0     0.0     0.0     0.0     0.0     0.0     0.0     0.0     0.1     0.1     0.0     0.0     0.0     0.0     0.0     0.0     0.0     0.0
   15 216   140    0.03    0.07    0.05    0.07    42.4   0.004   0.043   0.066   0.073     0.4     0.0     0.7     0.0     353    0.00    0.35    0.00    0.57     0.0     0.0     0.0     0.0     0.0     0.0     0.0     0.0     0.0     0.0     17.     14.      5.     12.     14.     15.     16.     17.     34.     35.     0.0     0.0     0.0     0.0     0.0     0.0     0.0     0.0     0.0     0.0     0.0     0.0     0.0     0.0     0.0     0.0     0.0     0.0     0.0     0.0     0.1     0.1     0.0     0.0     0.0     0.0     0.0     0.0     0.0     0.0
   15 217   141    0.03    0.07    0.05    0.07    42.8   0.004   0.043   0.066   0.074     0.4     0.0     0.7     0.0     381    0.00    0.38    0.00    0.61     0.0     0.0     0.0     0.0     0.0     0.0     0.0     0.0     0.0     0.0     17.     15.      5.     14.     15.     16.     18.     19.     37.     38.     0.0     0.0     0.0     0.0     0.0     0.0     0.0     0.0     0.0     0.0     0.0     0.0     0.0     0.0     0.0     0.0     0.0     0.0     0.0     0.0     0.1     0.1     0.0     0.0     0.0     0.0     0.0     0.0     0.0     0.0
   15 218   142    0.03    0.07    0.05    0.07    43.2   0.004   0.044   0.066   0.074     0.4     0.0     0.7     0.0     401    0.00    0.40    0.00    0.64     0.0     0.0     0.0     0.0     0.0     0.0     0.0     0.0     0.0     0.0     17.     16.      6.     14.     16.     17.     19.     20.     40.     40.     0.0     0.0     0.0     0.0     0.0     0.0     0.0     0.0     0.0     0.0     0.0     0.0     0.0     0.0     0.0     0.0     0.0     0.0     0.0     0.0     0.1     0.1     0.0     0.0     0.0     0.0     0.0     0.0     0.0     0.0
   15 219   143    0.03    0.07    0.05    0.07    43.6   0.004   0.044   0.066   0.075     0.4     0.0     0.7     0.0     429    0.00    0.43    0.00    0.68     0.0     0.0     0.0     0.0     0.0     0.0     0.0     0.0     0.0     0.0     17.     17.      6.     15.     17.     18.     21.     22.     43.     43.     0.0     0.0     0.0     0.0     0.0     0.0     0.0     0.0     0.0     0.0     0.0     0.0     0.0     0.0     0.0     0.0     0.0     0.0     0.0     0.0     0.1     0.1     0.0     0.0     0.0     0.0     0.0     0.0     0.0     0.0
   15 220   144    0.03    0.07    0.05    0.07    44.1   0.004   0.044   0.066   0.076     0.4     0.0     0.7     0.0     456    0.00    0.46    0.00    0.72     0.0     0.0     0.0     0.0     0.0     0.0     0.0     0.0     0.0     0.0     17.     17.      7.     16.     17.     19.     22.     23.     46.     46.     0.0     0.0     0.0     0.0     0.0     0.0     0.0     0.0     0.0     0.0     0.0     0.0     0.0     0.0     0.0     0.0     0.0     0.0     0.0     0.0     0.1     0.1     0.0     0.0     0.0     0.0     0.0     0.0     0.1     0.0
   15 221   145    0.03    0.07    0.05    0.07    44.6   0.004   0.045   0.066   0.076     0.3     0.0     0.6     0.0     483    0.00    0.48    0.00    0.77     0.0     0.0     0.0     0.0     0.0     0.0     0.0     0.0     0.0     0.0     21.     17.      7.     17.     18.     20.     23.     24.     49.     49.     0.0     0.0     0.0     0.0     0.0     0.0     0.0     0.0     0.0     0.0     0.0     0.0     0.0     0.0     0.0     0.0     0.0     0.0     0.0     0.0     0.1     0.1     0.0     0.0     0.0     0.0     0.0     0.0     0.1     0.1
   15 222   146    0.03    0.07    0.05    0.07    45.1   0.004   0.045   0.066   0.077     0.3     0.0     0.7     0.0     495    0.00    0.50    0.00    0.78     0.0     0.0     0.0     0.0     0.0     0.0     0.0     0.0     0.0     0.0     21.     17.      7.     17.     18.     20.     23.     25.     51.     51.     0.0     0.0     0.0     0.0     0.0     0.0     0.0     0.0     0.1     0.1     0.0     0.0     0.0     0.0     0.0     0.0     0.0     0.0     0.0     0.0     0.1     0.1     0.0     0.0     0.0     0.0     0.0     0.0     0.1     0.1
   15 223   147    0.03    0.07    0.05    0.07    45.6   0.004   0.046   0.066   0.078     0.4     0.0     0.7     0.0     505    0.00    0.50    0.00    0.79     0.0     0.0     0.0     0.0     0.0     0.0     0.0     0.0     0.0     0.0     19.     17.      7.     17.     18.     20.     24.     25.     52.     52.     0.0     0.0     0.0     0.0     0.0     0.0     0.0     0.0     0.1     0.1     0.0     0.0     0.0     0.0     0.0     0.0     0.0     0.0     0.0     0.0     0.1     0.1     0.0     0.0     0.0     0.0     0.0     0.0     0.1     0.1
   15 224   148    0.03    0.07    0.05    0.07    46.1   0.004   0.046   0.066   0.079     0.4     0.0     0.7     0.0     503    0.00    0.50    0.00    0.78     0.0     0.0     0.0     0.0     0.0     0.0     0.0     0.0     0.0     0.0     18.     17.      7.     16.     18.     19.     23.     25.     52.     53.     0.0     0.0     0.0     0.0     0.0     0.0     0.0     0.0     0.1     0.1     0.0     0.0     0.0     0.0     0.0     0.0     0.0     0.0     0.0     0.0     0.1     0.1     0.0     0.0     0.0     0.0     0.0     0.0     0.1     0.1
   15 225   149    0.03    0.07    0.05    0.07    46.6   0.004   0.047   0.066   0.080     0.4     0.0     0.7     0.0     501    0.00    0.50    0.00    0.76     0.0     0.0     0.0     0.0     0.0     0.0     0.0     0.0     0.0     0.0     16.     16.      7.     16.     17.     19.     23.     25.     53.     53.     0.0     0.0     0.0     0.0     0.0     0.0     0.0     0.0     0.1     0.1     0.0     0.0     0.0     0.0     0.0     0.0     0.0     0.0     0.0     0.0     0.1     0.1     0.0     0.0     0.0     0.0     0.0     0.0     0.1     0.1
   15 226   150    0.03    0.07    0.05    0.07    47.1   0.004   0.047   0.066   0.082     0.4     0.0     0.7     0.0     497    0.00    0.50    0.00    2.79     0.0     0.0     0.0     0.0     0.0     0.0     0.0     0.0     0.0     0.0     14.     15.      7.     15.     17.     18.     23.     25.     53.     54.     0.0     0.0     0.0     0.0     0.0     0.0     0.0     0.0     0.1     0.1     0.0     0.0     0.0     0.0     0.0     0.0     0.0     0.0     0.0     0.0     0.3     0.3     0.1     0.2     0.1     0.1     0.1     0.1     0.2     0.2
   15 227   151    0.03    0.07    0.05    0.07    47.6   0.004   0.048   0.066   0.085     0.3     0.0     0.7     0.0     514    0.00    0.51    0.00    2.42     0.0     0.0     0.0     0.0     0.0     0.0     0.0     0.0     0.0     0.0     28.     15.      7.     15.     16.     18.     23.     25.     54.     55.     0.0     0.0     0.0     0.0     0.0     0.0     0.0     0.0     0.1     0.1     0.0     0.0     0.0     0.0     0.0     0.0     0.0     0.0     0.0     0.0     0.4     0.2     0.1     0.1     0.1     0.1     0.1     0.1     0.2     0.2
   15 228   152    0.03    0.07    0.06    0.07    48.1   0.004   0.048   0.066   0.087     0.3     0.0     0.8     0.0     504    0.00    0.50    0.00    1.97     0.0     0.0     0.0     0.0     0.0     0.0     0.0     0.0     0.0     0.0     32.     14.      6.     14.     16.     17.     22.     24.     52.     53.     0.0     0.0     0.0     0.0     0.0     0.0     0.0     0.0     0.1     0.1     0.0     0.0     0.0     0.0     0.0     0.0     0.0     0.0     0.0     0.0     0.4     0.2     0.1     0.1     0.1     0.1     0.1     0.1     0.1     0.1
   15 229   153    0.03    0.07    0.06    0.07    48.6   0.004   0.049   0.066   0.088     0.3     0.0     0.7     0.0     470    0.00    0.47    0.00    1.45     0.0     0.0     0.0     0.0     0.0     0.0     0.0     0.0     0.0     0.0     31.     13.      6.     13.     14.     16.     20.     22.     48.     49.     0.0     0.0     0.0     0.0     0.0     0.0     0.0     0.0     0.0     0.0     0.0     0.0     0.0     0.0     0.0     0.0     0.0     0.0     0.0     0.0     0.3     0.1     0.0     0.1     0.1     0.1     0.1     0.1     0.1     0.1
   15 230   154    0.03    0.07    0.06    0.07    49.0   0.004   0.049   0.066   0.089     0.2     0.0     0.5     0.0     430    0.00    0.43    0.00    0.93     0.0     0.0     0.0     0.0     0.0     0.0     0.0     0.0     0.0     0.0     30.     13.      5.     11.     12.     14.     18.     20.     43.     45.     0.0     0.0     0.0     0.0     0.0     0.0     0.0     0.0     0.0     0.0     0.0     0.0     0.0     0.0     0.0     0.0     0.0     0.0     0.0     0.0     0.1     0.1     0.0     0.1     0.0     0.0     0.0     0.0     0.1     0.1
   15 231   155    0.03    0.07    0.06    0.07    49.4   0.004   0.050   0.066   0.090     0.4     0.0     0.8     0.0     413    0.00    0.41    0.00    0.89     0.0     0.0     0.0     0.0     0.0     0.0     0.0     0.0     0.0     0.0     40.     15.      4.     10.     11.     13.     16.     18.     40.     41.     0.0     0.0     0.0     0.0     0.0     0.0     0.0     0.0     0.0     0.0     0.0     0.0     0.0     0.0     0.0     0.0     0.0     0.0     0.0     0.0     0.2     0.1     0.0     0.0     0.0     0.0     0.0     0.0     0.1     0.1
   15 232   156    0.03    0.07    0.06    0.07    49.8   0.004   0.050   0.066   0.091     0.4     0.0     0.8     0.0     382    0.00    0.38    0.00    0.68     0.0     0.0     0.0     0.0     0.0     0.0     0.0     0.0     0.0     0.0     38.     15.      4.      9.     10.     11.     15.     16.     36.     38.     0.0     0.0     0.0     0.0     0.0     0.0     0.0     0.0     0.0     0.0     0.0     0.0     0.0     0.0     0.0     0.0     0.0     0.0     0.0     0.0     0.2     0.1     0.0     0.0     0.0     0.0     0.0     0.0     0.0     0.0
   15 233   157    0.03    0.07    0.06    0.07    50.2   0.004   0.050   0.066   0.091     0.4     0.0     0.8     0.0     367    0.00    0.37    0.00    0.61     0.0     0.0     0.0     0.0     0.0     0.0     0.0     0.0     0.0     0.0     38.     16.      4.      8.      9.     11.     14.     15.     34.     36.     0.0     0.0     0.0     0.0     0.0     0.0     0.0     0.0     0.0     0.0     0.0     0.0     0.0     0.0     0.0     0.0     0.0     0.0     0.0     0.0     0.2     0.1     0.0     0.0     0.0     0.0     0.0     0.0     0.0     0.0
   15 234   158    0.03    0.07    0.06    0.07    50.5   0.004   0.051   0.066   0.092     0.4     0.0     0.8     0.0     362    0.00    0.36    0.00    0.61     0.0     0.0     0.0     0.0     0.0     0.0     0.0     0.0     0.0     0.0     38.     16.      4.      8.      9.     10.     14.     15.     34.     35.     0.0     0.0     0.0     0.0     0.0     0.0     0.0     0.0     0.0     0.0     0.0     0.0     0.0     0.0     0.0     0.0     0.0     0.0     0.0     0.0     0.2     0.1     0.0     0.0     0.0     0.0     0.0     0.0     0.0     0.0
   15 235   159    0.03    0.07    0.06    0.07    50.9   0.004   0.051   0.066   0.092     0.4     0.0     0.8     0.0     371    0.00    0.37    0.00    0.63     0.0     0.0     0.0     0.0     0.0     0.0     0.0     0.0     0.0     0.0     39.     18.      4.      8.      9.     11.     14.     16.     35.     36.     0.0     0.0     0.0     0.0     0.0     0.0     0.0     0.0     0.0     0.0     0.0     0.0     0.0     0.0     0.0     0.0     0.0     0.0     0.0     0.0     0.2     0.1     0.0     0.0     0.0     0.0     0.0     0.0     0.0     0.0
   15 236   160    0.03    0.07    0.06    0.07    51.3   0.004   0.052   0.066   0.093     0.4     0.0     0.8     0.0     383    0.00    0.38    0.00    0.65     0.0     0.0     0.0     0.0     0.0     0.0     0.0     0.0     0.0     0.0     40.     19.      4.      9.     10.     11.     14.     16.     36.     37.     0.0     0.0     0.0     0.0     0.0     0.0     0.0     0.0     0.0     0.0     0.0     0.0     0.0     0.0     0.0     0.0     0.0     0.0     0.0     0.0     0.2     0.1     0.0     0.0     0.0     0.0     0.0     0.0     0.0     0.0
   15 237   161    0.03    0.07    0.06    0.07    51.7   0.004   0.052   0.066   0.094     0.2     0.0     0.3     0.0     387    0.00    0.39    0.00    0.48     0.0     0.0     0.0     0.0     0.0     0.0     0.0     0.0     0.0     0.0     28.     19.      5.      9.     10.     12.     15.     17.     38.     39.     0.0     0.0     0.0     0.0     0.0     0.0     0.0     0.0     0.0     0.0     0.0     0.0     0.0     0.0     0.0     0.0     0.0     0.0     0.0     0.0     0.0     0.0     0.0     0.0     0.0     0.0     0.0     0.0     0.0     0.0
