*SIMULATION OVERVIEW FILE

*DSSAT Cropping System Model Ver. 4.8.5.000 -release  NOV 27, 2025 15:48:13

*RUN   1        : 1                         WHAPS048 TUDU1501    1
 MODEL          : WHAPS048 - Wheat
 EXPERIMENT     : TUDU1501 WH
 DATA PATH      :
 TREATMENT  1   : 1                         WHAPS048


 CROP           : Wheat            CULTIVAR : Bacanora 88      ECOTYPE :IB0003
 STARTING DATE  : MAR 18   15
 PLANTING DATE  : MAR 18   15      PLANTS/m2 :   400.0    ROW SPACING :  12.cm
 HARVEST DATE   : AUG 25   15
 WEATHER        : TUDU     15
 SOIL           : DE02157980     TEXTURE : -99   - -99
 SOIL INIT COND : DEPTH:210cm EXTR. H2O:268.2mm  NO3: 93.5kg/ha  NH4:  9.1kg/ha
 WATER BALANCE  : RAINFED
 IRRIGATION     : NOT IRRIGATED
 NITROGEN BAL.  : SOIL-N & N-UPTAKE SIMULATION; NO N-FIXATION
 N-FERTILIZER   :      120 kg/ha IN     3 APPLICATIONS
 RESIDUE/MANURE : INITIAL :  1500 kg/ha ;       0 kg/ha IN     0 APPLICATIONS
 ENVIRONM. OPT. : DAYL=    0.00  SRAD=    0.00  TMAX=    0.00  TMIN=    0.00
                  RAIN=    0.00  CO2 =    0.00  DEW =    0.00  WIND=    0.00
 SIMULATION OPT : WATER   :Y  NITROGEN:Y  N-FIX:N  PHOSPH :N  PESTS  :N
                  PHOTO   :C  ET      :R  INFIL:S  HYDROL :R  SOM    :G
                  CO2 315ppm  NSWIT   :1  EVAP :S  SOIL   :2  STEMP  :D
 MANAGEMENT OPT : PLANTING:R  IRRIG   :N  FERT :R  RESIDUE:N  HARVEST:R
                  WEATHER :M  TILLAGE :Y

*SUMMARY OF SOIL AND GENETIC INPUT PARAMETERS

   SOIL LOWER UPPER   SAT  EXTR  INIT   ROOT   BULK     pH    NO3    NH4    ORG
  DEPTH LIMIT LIMIT    SW    SW    SW   DIST   DENS                          C
   cm   cm3/cm3    cm3/cm3    cm3/cm3         g/cm3         ugN/g  ugN/g     %
-------------------------------------------------------------------------------
  0-  5 0.108 0.236 0.391 0.128 0.223   1.00   1.29   6.20   3.10   0.30   3.19
  5- 15 0.118 0.246 0.395 0.128 0.234   0.86   1.31   6.28   3.10   0.30   2.72
 15- 20 0.123 0.252 0.396 0.129 0.249   0.80   1.32   6.31   3.10   0.30   2.49
 20- 30 0.133 0.262 0.399 0.129 0.249   0.70   1.34   6.37   3.10   0.30   2.06
 30- 40 0.138 0.267 0.400 0.129 0.269   0.63   1.36   6.41   3.10   0.30   1.81
 40- 50 0.142 0.271 0.402 0.129 0.269   0.57   1.37   6.44   3.10   0.30   1.57
 50- 60 0.147 0.276 0.403 0.129 0.269   0.50   1.39   6.48   3.10   0.30   1.32
 60- 70 0.147 0.276 0.403 0.129 0.268   0.47   1.40   6.52   3.10   0.30   1.18
 70- 90 0.146 0.275 0.402 0.129 0.268   0.41   1.44   6.58   3.10   0.30   0.91
 90-110 0.145 0.273 0.402 0.128 0.264   0.41   1.46   6.64   3.10   0.30   0.74
110-130 0.143 0.270 0.401 0.127 0.259   0.35   1.47   6.67   3.10   0.30   0.67
130-150 0.141 0.268 0.400 0.127 0.259   0.32   1.48   6.71   3.10   0.30   0.61
150-170 0.139 0.266 0.399 0.127 0.259   0.26   1.49   6.75   3.10   0.30   0.54
170-190 0.137 0.263 0.398 0.126 0.259   0.21   1.50   6.78   3.10   0.30   0.47
190-210 0.136 0.262 0.398 0.126 0.259   0.18   1.51   6.80   3.10   0.30   0.44

TOT-210  29.1  56.0  83.9  26.8  54.5  <--cm   -  kg/ha-->   93.5    9.1 310026
SOIL ALBEDO    : 0.10      EVAPORATION LIMIT : 6.00         MIN. FACTOR  : 1.00
RUNOFF CURVE # :75.00      DRAINAGE RATE     : 0.50         FERT. FACTOR : 1.00

 Wheat            CULTIVAR: AW0005-Bacanora 88        ECOTYPE: IB0003


*SIMULATED CROP AND SOIL STATUS AT MAIN DEVELOPMENT STAGES

 RUN NO.     1     1                       

        CROP GROWTH     BIOMASS         LEAF   CROP N     STRESS      STRESS                                           
   DATE  AGE STAGE        kg/ha    LAI   NUM  kg/ha  %   H2O  Nitr Phos1 Phos2  RSTG                                   
 ------  --- ----------   -----  -----  ----  ---  ---  ----  ----  ----  ----  ----                                   
 18 MAR    0 Fallow           0   0.00   0.0    0  0.0  0.00  0.00  0.00  0.00     8
 18 MAR    0 Sowing           0   0.00   0.0    0  0.0  0.00  0.00  0.00  0.00     8
 20 MAR    2 Germinate        0   0.00   0.0    0  0.0  0.00  0.00  0.00  0.00     9
 30 MAR   12 Emergence       11   0.02   0.0    1  9.1  0.00  0.00  0.00  0.00     1
 19 MAY   62 End Juveni    1714   2.31   0.0   51  3.0  0.75  0.01  0.00  0.00     2
 12 JUN   86 End Veg       4072   3.37   0.0   91  2.2  0.88  0.00  0.00  0.00     3
 28 JUN  102 End Ear Gr    6917   3.03   0.0  105  1.5  0.86  0.00  0.00  0.00     4
  7 JUL  111 Beg Gr Fil    8618   2.61   0.0  110  1.3  0.94  0.00  0.00  0.00     5
 12 AUG  147 Maturity     12392   0.00   0.0  124  1.0  0.90  0.00  0.00  0.00     6
 13 AUG  148 Maturity     12392   0.00   0.0  124  1.0  0.00  0.00  0.00  0.00     7
 25 AUG  160 Harvest      12392   0.00   0.0  124  1.0  0.00  0.00  0.00  0.00     7


*MAIN GROWTH AND DEVELOPMENT VARIABLES

@     VARIABLE                                         SIMULATED     MEASURED
      --------                                         ---------     --------
      Anthesis day (dap)                                     102          -99
      Physiological maturity day (dap)                       148          -99
      Yield at harvest maturity (kg [dm]/ha)                5416         6135
      Number at maturity (no/m2)                           13913          -99
      Unit wt at maturity (g [dm]/unit)                     38.9          -99
      Number at maturity (no/unit)                          34.8          -99
      Tops weight at maturity (kg [dm]/ha)                 12392          -99
      By-product produced (stalk) at maturity (kg[dm]/ha       0          -99
      Leaf area index, maximum                              3.49          -99
      Harvest index at maturity                            0.437          -99
      Grain N at maturity (kg/ha)                            102          -99
      Tops N at maturity (kg/ha)                             124          -99
      Stem N at maturity (kg/ha)                               0          -99
      Grain N at maturity (%)                                1.9          -99
      Tops weight at anthesis (kg [dm]/ha)                     2          -99
      Tops N at anthesis (kg/ha)                              35          -99
      Leaf number per stem at maturity                      0.00          -99
      Emergence day (dap)                                     12          -99


*ENVIRONMENTAL AND STRESS FACTORS

 |-----Development Phase------|--------------------------------------Environment--------------------------------------|-----------------Stress-----------------|
                              |---------------Average--------------|-----Cumulative-----|--------Count of days--------|          (0=Min, 1=Max Stress)         |
                         Time  Temp  Temp  Temp Solar Photop                Evapo    Pot TMIN TMIN TMAX TMAX TMAX RAIN|----Water----|---Nitrogen--|-Phosphorus-|
                         Span   Max   Min  Mean   Rad  [day]    CO2   Rain  Trans     ET   <    <    >    >    >    >   Photo         Photo         Photo
                         days     C     C     C MJ/m2     hr    ppm     mm     mm    mm   0 C  2 C 30 C 32 C 34 C  0mm  synth Growth  synth Growth  synth Growth
----------------------------------------------------------------------------------------------------------------------------------------------------------------
 Emergence-End Juvenile    50  15.9   4.6  10.2  16.7  13.87  314.9  140.0  109.0  163.8    4   17    0    0    0   19  0.671  0.729  0.004  0.009  0.000  0.000
 End Juvenil-Floral Init   24  19.9   9.6  14.8  17.8  15.54  314.9   60.0   49.7   84.9    0    0    0    0    0    7  0.819  0.880  0.000  0.000  0.000  0.000
 Floral Init-End Lf Grow   16  19.8  10.4  15.1  17.8  15.88  314.9   72.0   49.0   56.1    0    0    0    0    0    6  0.793  0.863  0.000  0.000  0.000  0.000
 End Lf Grth-Beg Grn Fil    9  28.6  14.2  21.4  25.7  15.82  314.9    0.0   55.4   52.1    0    0    3    1    0    0  0.895  0.930  0.000  0.000  0.000  0.000
 Grain Filling Phase       36  27.1  13.1  20.1  20.6  15.14  314.9   18.0   99.3  168.8    0    0   11    7    1    8  0.921  0.929  0.000  0.000  0.000  0.000
   
 Planting to Harvest      160  20.5   8.7  14.6  17.9  14.59  314.9  330.0  392.9  601.0    8   24   17   10    1   47  0.670  0.707  0.001  0.003  0.000  0.000
----------------------------------------------------------------------------------------------------------------------------------------------------------------


*Resource Productivity
 Growing season length: 160 days 

 Precipitation during growing season       330.0 mm[rain]
   Dry Matter Productivity                  3.76 kg[DM]/m3[rain]          =   37.6 kg[DM]/ha per mm[rain]
   Yield Productivity                       1.64 kg[grain yield]/m3[rain] =   16.4 kg[yield]/ha per mm[rain]

 Evapotranspiration during growing season  392.9 mm[ET]
   Dry Matter Productivity                  3.15 kg[DM]/m3[ET]            =   31.5 kg[DM]/ha per mm[ET]
   Yield Productivity                       1.38 kg[grain yield]/m3[ET]   =   13.8 kg[yield]/ha per mm[ET]

 Transpiration during growing season       255.5 mm[EP]
   Dry Matter Productivity                  4.85 kg[DM]/m3[EP]            =   48.5 kg[DM]/ha per mm[EP]
   Yield Productivity                       2.12 kg[grain yield]/m3[EP]   =   21.2 kg[yield]/ha per mm[EP]

 N applied during growing season            120. kg[N applied]/ha
   Dry Matter Productivity                 103.3 kg[DM]/kg[N applied]
   Yield Productivity                       45.1 kg[yield]/kg[N applied]

 N uptake during growing season              157 kg[N uptake]/ha
   Dry Matter Productivity                  78.9 kg[DM]/kg[N uptake]
   Yield Productivity                       34.5 kg[yield]/kg[N uptake]

--------------------------------------------------------------------------------------------------------------

                     Wheat YIELD :     5416 kg/ha    [Dry weight] 

**************************************************************************************************************

*DSSAT Cropping System Model Ver. 4.8.5.000 -release  NOV 27, 2025 15:48:13

*RUN   2        : 2                         WHAPS048 TUDU1501    2
 MODEL          : WHAPS048 - Wheat
 EXPERIMENT     : TUDU1501 WH
 DATA PATH      :
 TREATMENT  2   : 2                         WHAPS048


 CROP           : Wheat            CULTIVAR : Bacanora 88      ECOTYPE :IB0003
 STARTING DATE  : MAR 18   15
 PLANTING DATE  : MAR 18   15      PLANTS/m2 :   400.0    ROW SPACING :  12.cm
 HARVEST DATE   : AUG 25   15
 WEATHER        : TUDU     15
 SOIL           : DE02157980     TEXTURE : -99   - -99
 SOIL INIT COND : DEPTH:210cm EXTR. H2O:268.2mm  NO3: 93.5kg/ha  NH4:  9.1kg/ha
 WATER BALANCE  : RAINFED
 IRRIGATION     : NOT IRRIGATED
 NITROGEN BAL.  : SOIL-N & N-UPTAKE SIMULATION; NO N-FIXATION
 N-FERTILIZER   :      120 kg/ha IN     3 APPLICATIONS
 RESIDUE/MANURE : INITIAL :  1500 kg/ha ;       0 kg/ha IN     0 APPLICATIONS
 ENVIRONM. OPT. : DAYL=    0.00  SRAD=    0.00  TMAX=    0.00  TMIN=    0.00
                  RAIN=    0.00  CO2 =    0.00  DEW =    0.00  WIND=    0.00
 SIMULATION OPT : WATER   :Y  NITROGEN:Y  N-FIX:N  PHOSPH :N  PESTS  :N
                  PHOTO   :C  ET      :R  INFIL:S  HYDROL :R  SOM    :G
                  CO2 315ppm  NSWIT   :1  EVAP :S  SOIL   :2  STEMP  :D
 MANAGEMENT OPT : PLANTING:R  IRRIG   :N  FERT :R  RESIDUE:N  HARVEST:R
                  WEATHER :M  TILLAGE :Y

*SUMMARY OF SOIL AND GENETIC INPUT PARAMETERS

   SOIL LOWER UPPER   SAT  EXTR  INIT   ROOT   BULK     pH    NO3    NH4    ORG
  DEPTH LIMIT LIMIT    SW    SW    SW   DIST   DENS                          C
   cm   cm3/cm3    cm3/cm3    cm3/cm3         g/cm3         ugN/g  ugN/g     %
-------------------------------------------------------------------------------
  0-  5 0.108 0.236 0.391 0.128 0.223   1.00   1.29   6.20   3.10   0.30   3.19
  5- 15 0.118 0.246 0.395 0.128 0.234   0.86   1.31   6.28   3.10   0.30   2.72
 15- 20 0.123 0.252 0.396 0.129 0.249   0.80   1.32   6.31   3.10   0.30   2.49
 20- 30 0.133 0.262 0.399 0.129 0.249   0.70   1.34   6.37   3.10   0.30   2.06
 30- 40 0.138 0.267 0.400 0.129 0.269   0.63   1.36   6.41   3.10   0.30   1.81
 40- 50 0.142 0.271 0.402 0.129 0.269   0.57   1.37   6.44   3.10   0.30   1.57
 50- 60 0.147 0.276 0.403 0.129 0.269   0.50   1.39   6.48   3.10   0.30   1.32
 60- 70 0.147 0.276 0.403 0.129 0.268   0.47   1.40   6.52   3.10   0.30   1.18
 70- 90 0.146 0.275 0.402 0.129 0.268   0.41   1.44   6.58   3.10   0.30   0.91
 90-110 0.145 0.273 0.402 0.128 0.264   0.41   1.46   6.64   3.10   0.30   0.74
110-130 0.143 0.270 0.401 0.127 0.259   0.35   1.47   6.67   3.10   0.30   0.67
130-150 0.141 0.268 0.400 0.127 0.259   0.32   1.48   6.71   3.10   0.30   0.61
150-170 0.139 0.266 0.399 0.127 0.259   0.26   1.49   6.75   3.10   0.30   0.54
170-190 0.137 0.263 0.398 0.126 0.259   0.21   1.50   6.78   3.10   0.30   0.47
190-210 0.136 0.262 0.398 0.126 0.259   0.18   1.51   6.80   3.10   0.30   0.44

TOT-210  29.1  56.0  83.9  26.8  54.5  <--cm   -  kg/ha-->   93.5    9.1 310026
SOIL ALBEDO    : 0.10      EVAPORATION LIMIT : 6.00         MIN. FACTOR  : 1.00
RUNOFF CURVE # :75.00      DRAINAGE RATE     : 0.50         FERT. FACTOR : 1.00

 Wheat            CULTIVAR: AW0005-Bacanora 88        ECOTYPE: IB0003


*SIMULATED CROP AND SOIL STATUS AT MAIN DEVELOPMENT STAGES

 RUN NO.     2     2                       

        CROP GROWTH     BIOMASS         LEAF   CROP N     STRESS      STRESS                                           
   DATE  AGE STAGE        kg/ha    LAI   NUM  kg/ha  %   H2O  Nitr Phos1 Phos2  RSTG                                   
 ------  --- ----------   -----  -----  ----  ---  ---  ----  ----  ----  ----  ----                                   
 18 MAR    0 Fallow           0   0.00   0.0    0  0.0  0.00  0.00  0.00  0.00     8
 18 MAR    0 Sowing           0   0.00   0.0    0  0.0  0.00  0.00  0.00  0.00     8
 20 MAR    2 Germinate        0   0.00   0.0    0  0.0  0.00  0.00  0.00  0.00     9
 30 MAR   12 Emergence       11   0.02   0.0    1  9.1  0.00  0.00  0.00  0.00     1
 19 MAY   62 End Juveni    1759   2.38   0.0   53  3.0  0.75  0.01  0.00  0.00     2
 12 JUN   86 End Veg       4262   3.55   0.0   95  2.2  0.88  0.00  0.00  0.00     3
 28 JUN  102 End Ear Gr    7147   3.19   0.0  108  1.5  0.86  0.00  0.00  0.00     4
  7 JUL  111 Beg Gr Fil    8879   2.75   0.0  114  1.3  0.94  0.00  0.00  0.00     5
 12 AUG  147 Maturity     12733   0.00   0.0  128  1.0  0.90  0.00  0.00  0.00     6
 13 AUG  148 Maturity     12733   0.00   0.0  128  1.0  0.00  0.00  0.00  0.00     7
 25 AUG  160 Harvest      12733   0.00   0.0  128  1.0  0.00  0.00  0.00  0.00     7


*MAIN GROWTH AND DEVELOPMENT VARIABLES

@     VARIABLE                                         SIMULATED     MEASURED
      --------                                         ---------     --------
      Anthesis day (dap)                                     102          -99
      Physiological maturity day (dap)                       148          -99
      Yield at harvest maturity (kg [dm]/ha)                5529         7361
      Number at maturity (no/m2)                           14236          -99
      Unit wt at maturity (g [dm]/unit)                     38.8          -99
      Number at maturity (no/unit)                          35.6          -99
      Tops weight at maturity (kg [dm]/ha)                 12733          -99
      By-product produced (stalk) at maturity (kg[dm]/ha       0          -99
      Leaf area index, maximum                              3.68          -99
      Harvest index at maturity                            0.434          -99
      Grain N at maturity (kg/ha)                            105          -99
      Tops N at maturity (kg/ha)                             128          -99
      Stem N at maturity (kg/ha)                               0          -99
      Grain N at maturity (%)                                1.9          -99
      Tops weight at anthesis (kg [dm]/ha)                     2          -99
      Tops N at anthesis (kg/ha)                              35          -99
      Leaf number per stem at maturity                      0.00          -99
      Emergence day (dap)                                     12          -99


*ENVIRONMENTAL AND STRESS FACTORS

 |-----Development Phase------|--------------------------------------Environment--------------------------------------|-----------------Stress-----------------|
                              |---------------Average--------------|-----Cumulative-----|--------Count of days--------|          (0=Min, 1=Max Stress)         |
                         Time  Temp  Temp  Temp Solar Photop                Evapo    Pot TMIN TMIN TMAX TMAX TMAX RAIN|----Water----|---Nitrogen--|-Phosphorus-|
                         Span   Max   Min  Mean   Rad  [day]    CO2   Rain  Trans     ET   <    <    >    >    >    >   Photo         Photo         Photo
                         days     C     C     C MJ/m2     hr    ppm     mm     mm    mm   0 C  2 C 30 C 32 C 34 C  0mm  synth Growth  synth Growth  synth Growth
----------------------------------------------------------------------------------------------------------------------------------------------------------------
 Emergence-End Juvenile    50  15.9   4.6  10.2  16.7  13.87  314.9  140.0  109.5  163.7    4   17    0    0    0   19  0.671  0.729  0.004  0.009  0.000  0.000
 End Juvenil-Floral Init   24  19.9   9.6  14.8  17.8  15.54  314.9   60.0   52.1   84.8    0    0    0    0    0    7  0.815  0.877  0.000  0.000  0.000  0.000
 Floral Init-End Lf Grow   16  19.8  10.4  15.1  17.8  15.88  314.9   72.0   48.9   56.0    0    0    0    0    0    6  0.788  0.859  0.000  0.000  0.000  0.000
 End Lf Grth-Beg Grn Fil    9  28.6  14.2  21.4  25.7  15.82  314.9    0.0   56.1   52.0    0    0    3    1    0    0  0.893  0.929  0.000  0.000  0.000  0.000
 Grain Filling Phase       36  27.1  13.1  20.1  20.6  15.14  314.9   18.0   98.3  168.4    0    0   11    7    1    8  0.921  0.930  0.000  0.000  0.000  0.000
   
 Planting to Harvest      160  20.5   8.7  14.6  17.9  14.59  314.9  330.0  395.4  600.2    8   24   17   10    1   47  0.668  0.707  0.001  0.003  0.000  0.000
----------------------------------------------------------------------------------------------------------------------------------------------------------------


*Resource Productivity
 Growing season length: 160 days 

 Precipitation during growing season       330.0 mm[rain]
   Dry Matter Productivity                  3.86 kg[DM]/m3[rain]          =   38.6 kg[DM]/ha per mm[rain]
   Yield Productivity                       1.68 kg[grain yield]/m3[rain] =   16.8 kg[yield]/ha per mm[rain]

 Evapotranspiration during growing season  395.4 mm[ET]
   Dry Matter Productivity                  3.22 kg[DM]/m3[ET]            =   32.2 kg[DM]/ha per mm[ET]
   Yield Productivity                       1.40 kg[grain yield]/m3[ET]   =   14.0 kg[yield]/ha per mm[ET]

 Transpiration during growing season       260.0 mm[EP]
   Dry Matter Productivity                  4.90 kg[DM]/m3[EP]            =   49.0 kg[DM]/ha per mm[EP]
   Yield Productivity                       2.13 kg[grain yield]/m3[EP]   =   21.3 kg[yield]/ha per mm[EP]

 N applied during growing season            120. kg[N applied]/ha
   Dry Matter Productivity                 106.1 kg[DM]/kg[N applied]
   Yield Productivity                       46.1 kg[yield]/kg[N applied]

 N uptake during growing season              162 kg[N uptake]/ha
   Dry Matter Productivity                  78.6 kg[DM]/kg[N uptake]
   Yield Productivity                       34.1 kg[yield]/kg[N uptake]

--------------------------------------------------------------------------------------------------------------

                     Wheat YIELD :     5529 kg/ha    [Dry weight] 

**************************************************************************************************************

*DSSAT Cropping System Model Ver. 4.8.5.000 -release  NOV 27, 2025 15:48:13

*RUN   3        : 3                         WHAPS048 TUDU1501    3
 MODEL          : WHAPS048 - Wheat
 EXPERIMENT     : TUDU1501 WH
 DATA PATH      :
 TREATMENT  3   : 3                         WHAPS048


 CROP           : Wheat            CULTIVAR : Bacanora 88      ECOTYPE :IB0003
 STARTING DATE  : MAR 18   15
 PLANTING DATE  : MAR 18   15      PLANTS/m2 :   400.0    ROW SPACING :  12.cm
 HARVEST DATE   : AUG 25   15
 WEATHER        : TUDU     15
 SOIL           : DE02157980     TEXTURE : -99   - -99
 SOIL INIT COND : DEPTH:210cm EXTR. H2O:268.2mm  NO3: 93.5kg/ha  NH4:  9.1kg/ha
 WATER BALANCE  : RAINFED
 IRRIGATION     : NOT IRRIGATED
 NITROGEN BAL.  : SOIL-N & N-UPTAKE SIMULATION; NO N-FIXATION
 N-FERTILIZER   :      120 kg/ha IN     2 APPLICATIONS
 RESIDUE/MANURE : INITIAL :  1500 kg/ha ;       0 kg/ha IN     0 APPLICATIONS
 ENVIRONM. OPT. : DAYL=    0.00  SRAD=    0.00  TMAX=    0.00  TMIN=    0.00
                  RAIN=    0.00  CO2 =    0.00  DEW =    0.00  WIND=    0.00
 SIMULATION OPT : WATER   :Y  NITROGEN:Y  N-FIX:N  PHOSPH :N  PESTS  :N
                  PHOTO   :C  ET      :R  INFIL:S  HYDROL :R  SOM    :G
                  CO2 315ppm  NSWIT   :1  EVAP :S  SOIL   :2  STEMP  :D
 MANAGEMENT OPT : PLANTING:R  IRRIG   :N  FERT :R  RESIDUE:N  HARVEST:R
                  WEATHER :M  TILLAGE :Y

*SUMMARY OF SOIL AND GENETIC INPUT PARAMETERS

   SOIL LOWER UPPER   SAT  EXTR  INIT   ROOT   BULK     pH    NO3    NH4    ORG
  DEPTH LIMIT LIMIT    SW    SW    SW   DIST   DENS                          C
   cm   cm3/cm3    cm3/cm3    cm3/cm3         g/cm3         ugN/g  ugN/g     %
-------------------------------------------------------------------------------
  0-  5 0.108 0.236 0.391 0.128 0.223   1.00   1.29   6.20   3.10   0.30   3.19
  5- 15 0.118 0.246 0.395 0.128 0.234   0.86   1.31   6.28   3.10   0.30   2.72
 15- 20 0.123 0.252 0.396 0.129 0.249   0.80   1.32   6.31   3.10   0.30   2.49
 20- 30 0.133 0.262 0.399 0.129 0.249   0.70   1.34   6.37   3.10   0.30   2.06
 30- 40 0.138 0.267 0.400 0.129 0.269   0.63   1.36   6.41   3.10   0.30   1.81
 40- 50 0.142 0.271 0.402 0.129 0.269   0.57   1.37   6.44   3.10   0.30   1.57
 50- 60 0.147 0.276 0.403 0.129 0.269   0.50   1.39   6.48   3.10   0.30   1.32
 60- 70 0.147 0.276 0.403 0.129 0.268   0.47   1.40   6.52   3.10   0.30   1.18
 70- 90 0.146 0.275 0.402 0.129 0.268   0.41   1.44   6.58   3.10   0.30   0.91
 90-110 0.145 0.273 0.402 0.128 0.264   0.41   1.46   6.64   3.10   0.30   0.74
110-130 0.143 0.270 0.401 0.127 0.259   0.35   1.47   6.67   3.10   0.30   0.67
130-150 0.141 0.268 0.400 0.127 0.259   0.32   1.48   6.71   3.10   0.30   0.61
150-170 0.139 0.266 0.399 0.127 0.259   0.26   1.49   6.75   3.10   0.30   0.54
170-190 0.137 0.263 0.398 0.126 0.259   0.21   1.50   6.78   3.10   0.30   0.47
190-210 0.136 0.262 0.398 0.126 0.259   0.18   1.51   6.80   3.10   0.30   0.44

TOT-210  29.1  56.0  83.9  26.8  54.5  <--cm   -  kg/ha-->   93.5    9.1 310026
SOIL ALBEDO    : 0.10      EVAPORATION LIMIT : 6.00         MIN. FACTOR  : 1.00
RUNOFF CURVE # :75.00      DRAINAGE RATE     : 0.50         FERT. FACTOR : 1.00

 Wheat            CULTIVAR: AW0005-Bacanora 88        ECOTYPE: IB0003


*SIMULATED CROP AND SOIL STATUS AT MAIN DEVELOPMENT STAGES

 RUN NO.     3     3                       

        CROP GROWTH     BIOMASS         LEAF   CROP N     STRESS      STRESS                                           
   DATE  AGE STAGE        kg/ha    LAI   NUM  kg/ha  %   H2O  Nitr Phos1 Phos2  RSTG                                   
 ------  --- ----------   -----  -----  ----  ---  ---  ----  ----  ----  ----  ----                                   
 18 MAR    0 Fallow           0   0.00   0.0    0  0.0  0.00  0.00  0.00  0.00     8
 18 MAR    0 Sowing           0   0.00   0.0    0  0.0  0.00  0.00  0.00  0.00     8
 20 MAR    2 Germinate        0   0.00   0.0    0  0.0  0.00  0.00  0.00  0.00     9
 30 MAR   12 Emergence       11   0.02   0.0    1  9.1  0.00  0.00  0.00  0.00     1
 19 MAY   62 End Juveni     784   1.03   0.0   20  2.6  0.74  0.01  0.00  0.00     2
 12 JUN   86 End Veg       1698   1.33   0.0   32  1.9  0.93  0.00  0.00  0.00     3
 28 JUN  102 End Ear Gr    2977   1.15   0.0   41  1.4  0.91  0.00  0.00  0.00     4
  7 JUL  111 Beg Gr Fil    3958   0.97   0.0   46  1.2  0.95  0.00  0.00  0.00     5
 12 AUG  147 Maturity      6001   0.00   0.0   62  1.0  0.89  0.00  0.00  0.00     6
 13 AUG  148 Maturity      6001   0.00   0.0   62  1.0  0.00  0.00  0.00  0.00     7
 25 AUG  160 Harvest       6001   0.00   0.0   62  1.0  0.00  0.00  0.00  0.00     7


*MAIN GROWTH AND DEVELOPMENT VARIABLES

@     VARIABLE                                         SIMULATED     MEASURED
      --------                                         ---------     --------
      Anthesis day (dap)                                     102          -99
      Physiological maturity day (dap)                       148          -99
      Yield at harvest maturity (kg [dm]/ha)                2937         6322
      Number at maturity (no/m2)                            6540          -99
      Unit wt at maturity (g [dm]/unit)                     44.9          -99
      Number at maturity (no/unit)                          16.3          -99
      Tops weight at maturity (kg [dm]/ha)                  6001          -99
      By-product produced (stalk) at maturity (kg[dm]/ha       0          -99
      Leaf area index, maximum                              1.46          -99
      Harvest index at maturity                            0.489          -99
      Grain N at maturity (kg/ha)                             52          -99
      Tops N at maturity (kg/ha)                              62          -99
      Stem N at maturity (kg/ha)                               0          -99
      Grain N at maturity (%)                                1.8          -99
      Tops weight at anthesis (kg [dm]/ha)                     2          -99
      Tops N at anthesis (kg/ha)                              35          -99
      Leaf number per stem at maturity                      0.00          -99
      Emergence day (dap)                                     12          -99


*ENVIRONMENTAL AND STRESS FACTORS

 |-----Development Phase------|--------------------------------------Environment--------------------------------------|-----------------Stress-----------------|
                              |---------------Average--------------|-----Cumulative-----|--------Count of days--------|          (0=Min, 1=Max Stress)         |
                         Time  Temp  Temp  Temp Solar Photop                Evapo    Pot TMIN TMIN TMAX TMAX TMAX RAIN|----Water----|---Nitrogen--|-Phosphorus-|
                         Span   Max   Min  Mean   Rad  [day]    CO2   Rain  Trans     ET   <    <    >    >    >    >   Photo         Photo         Photo
                         days     C     C     C MJ/m2     hr    ppm     mm     mm    mm   0 C  2 C 30 C 32 C 34 C  0mm  synth Growth  synth Growth  synth Growth
----------------------------------------------------------------------------------------------------------------------------------------------------------------
 Emergence-End Juvenile    50  15.9   4.6  10.2  16.7  13.87  314.9  140.0   96.3  167.5    4   17    0    0    0   19  0.667  0.726  0.004  0.009  0.000  0.000
 End Juvenil-Floral Init   24  19.9   9.6  14.8  17.8  15.54  314.9   60.0   39.8   89.1    0    0    0    0    0    7  0.883  0.922  0.000  0.000  0.000  0.000
 Floral Init-End Lf Grow   16  19.8  10.4  15.1  17.8  15.88  314.9   72.0   42.7   59.5    0    0    0    0    0    6  0.861  0.908  0.000  0.000  0.000  0.000
 End Lf Grth-Beg Grn Fil    9  28.6  14.2  21.4  25.7  15.82  314.9    0.0   34.3   55.0    0    0    3    1    0    0  0.916  0.945  0.000  0.000  0.000  0.000
 Grain Filling Phase       36  27.1  13.1  20.1  20.6  15.14  314.9   18.0   76.9  177.3    0    0   11    7    1    8  0.881  0.912  0.000  0.000  0.000  0.000
   
 Planting to Harvest      160  20.5   8.7  14.6  17.9  14.59  314.9  330.0  321.0  623.7    8   24   17   10    1   47  0.677  0.714  0.001  0.003  0.000  0.000
----------------------------------------------------------------------------------------------------------------------------------------------------------------


*Resource Productivity
 Growing season length: 160 days 

 Precipitation during growing season       330.0 mm[rain]
   Dry Matter Productivity                  1.82 kg[DM]/m3[rain]          =   18.2 kg[DM]/ha per mm[rain]
   Yield Productivity                       0.89 kg[grain yield]/m3[rain] =    8.9 kg[yield]/ha per mm[rain]

 Evapotranspiration during growing season  321.0 mm[ET]
   Dry Matter Productivity                  1.87 kg[DM]/m3[ET]            =   18.7 kg[DM]/ha per mm[ET]
   Yield Productivity                       0.91 kg[grain yield]/m3[ET]   =    9.1 kg[yield]/ha per mm[ET]

 Transpiration during growing season       133.4 mm[EP]
   Dry Matter Productivity                  4.50 kg[DM]/m3[EP]            =   45.0 kg[DM]/ha per mm[EP]
   Yield Productivity                       2.20 kg[grain yield]/m3[EP]   =   22.0 kg[yield]/ha per mm[EP]

 N applied during growing season             40. kg[N applied]/ha
   Dry Matter Productivity                 150.0 kg[DM]/kg[N applied]
   Yield Productivity                       73.4 kg[yield]/kg[N applied]

 N uptake during growing season               78 kg[N uptake]/ha
   Dry Matter Productivity                  76.9 kg[DM]/kg[N uptake]
   Yield Productivity                       37.7 kg[yield]/kg[N uptake]

--------------------------------------------------------------------------------------------------------------

                     Wheat YIELD :     2937 kg/ha    [Dry weight] 

**************************************************************************************************************

*DSSAT Cropping System Model Ver. 4.8.5.000 -release  NOV 27, 2025 15:48:13

*RUN   4        : 4                         WHAPS048 TUDU1501    4
 MODEL          : WHAPS048 - Wheat
 EXPERIMENT     : TUDU1501 WH
 DATA PATH      :
 TREATMENT  4   : 4                         WHAPS048


 CROP           : Wheat            CULTIVAR : Bacanora 88      ECOTYPE :IB0003
 STARTING DATE  : MAR 18   15
 PLANTING DATE  : MAR 18   15      PLANTS/m2 :   400.0    ROW SPACING :  12.cm
 HARVEST DATE   : AUG 25   15
 WEATHER        : TUDU     15
 SOIL           : DE02157980     TEXTURE : -99   - -99
 SOIL INIT COND : DEPTH:210cm EXTR. H2O:268.2mm  NO3: 93.5kg/ha  NH4:  9.1kg/ha
 WATER BALANCE  : RAINFED
 IRRIGATION     : NOT IRRIGATED
 NITROGEN BAL.  : SOIL-N & N-UPTAKE SIMULATION; NO N-FIXATION
 N-FERTILIZER   :      120 kg/ha IN     3 APPLICATIONS
 RESIDUE/MANURE : INITIAL :  1500 kg/ha ;       0 kg/ha IN     0 APPLICATIONS
 ENVIRONM. OPT. : DAYL=    0.00  SRAD=    0.00  TMAX=    0.00  TMIN=    0.00
                  RAIN=    0.00  CO2 =    0.00  DEW =    0.00  WIND=    0.00
 SIMULATION OPT : WATER   :Y  NITROGEN:Y  N-FIX:N  PHOSPH :N  PESTS  :N
                  PHOTO   :C  ET      :R  INFIL:S  HYDROL :R  SOM    :G
                  CO2 315ppm  NSWIT   :1  EVAP :S  SOIL   :2  STEMP  :D
 MANAGEMENT OPT : PLANTING:R  IRRIG   :N  FERT :R  RESIDUE:N  HARVEST:R
                  WEATHER :M  TILLAGE :Y

*SUMMARY OF SOIL AND GENETIC INPUT PARAMETERS

   SOIL LOWER UPPER   SAT  EXTR  INIT   ROOT   BULK     pH    NO3    NH4    ORG
  DEPTH LIMIT LIMIT    SW    SW    SW   DIST   DENS                          C
   cm   cm3/cm3    cm3/cm3    cm3/cm3         g/cm3         ugN/g  ugN/g     %
-------------------------------------------------------------------------------
  0-  5 0.108 0.236 0.391 0.128 0.223   1.00   1.29   6.20   3.10   0.30   3.19
  5- 15 0.118 0.246 0.395 0.128 0.234   0.86   1.31   6.28   3.10   0.30   2.72
 15- 20 0.123 0.252 0.396 0.129 0.249   0.80   1.32   6.31   3.10   0.30   2.49
 20- 30 0.133 0.262 0.399 0.129 0.249   0.70   1.34   6.37   3.10   0.30   2.06
 30- 40 0.138 0.267 0.400 0.129 0.269   0.63   1.36   6.41   3.10   0.30   1.81
 40- 50 0.142 0.271 0.402 0.129 0.269   0.57   1.37   6.44   3.10   0.30   1.57
 50- 60 0.147 0.276 0.403 0.129 0.269   0.50   1.39   6.48   3.10   0.30   1.32
 60- 70 0.147 0.276 0.403 0.129 0.268   0.47   1.40   6.52   3.10   0.30   1.18
 70- 90 0.146 0.275 0.402 0.129 0.268   0.41   1.44   6.58   3.10   0.30   0.91
 90-110 0.145 0.273 0.402 0.128 0.264   0.41   1.46   6.64   3.10   0.30   0.74
110-130 0.143 0.270 0.401 0.127 0.259   0.35   1.47   6.67   3.10   0.30   0.67
130-150 0.141 0.268 0.400 0.127 0.259   0.32   1.48   6.71   3.10   0.30   0.61
150-170 0.139 0.266 0.399 0.127 0.259   0.26   1.49   6.75   3.10   0.30   0.54
170-190 0.137 0.263 0.398 0.126 0.259   0.21   1.50   6.78   3.10   0.30   0.47
190-210 0.136 0.262 0.398 0.126 0.259   0.18   1.51   6.80   3.10   0.30   0.44

TOT-210  29.1  56.0  83.9  26.8  54.5  <--cm   -  kg/ha-->   93.5    9.1 310026
SOIL ALBEDO    : 0.10      EVAPORATION LIMIT : 6.00         MIN. FACTOR  : 1.00
RUNOFF CURVE # :75.00      DRAINAGE RATE     : 0.50         FERT. FACTOR : 1.00

 Wheat            CULTIVAR: AW0005-Bacanora 88        ECOTYPE: IB0003


*SIMULATED CROP AND SOIL STATUS AT MAIN DEVELOPMENT STAGES

 RUN NO.     4     4                       

        CROP GROWTH     BIOMASS         LEAF   CROP N     STRESS      STRESS                                           
   DATE  AGE STAGE        kg/ha    LAI   NUM  kg/ha  %   H2O  Nitr Phos1 Phos2  RSTG                                   
 ------  --- ----------   -----  -----  ----  ---  ---  ----  ----  ----  ----  ----                                   
 18 MAR    0 Fallow           0   0.00   0.0    0  0.0  0.00  0.00  0.00  0.00     8
 18 MAR    0 Sowing           0   0.00   0.0    0  0.0  0.00  0.00  0.00  0.00     8
 20 MAR    2 Germinate        0   0.00   0.0    0  0.0  0.00  0.00  0.00  0.00     9
 30 MAR   12 Emergence       11   0.02   0.0    1  9.1  0.00  0.00  0.00  0.00     1
 19 MAY   62 End Juveni    1749   2.36   0.0   53  3.0  0.75  0.01  0.00  0.00     2
 12 JUN   86 End Veg       4230   3.52   0.0   94  2.2  0.88  0.00  0.00  0.00     3
 28 JUN  102 End Ear Gr    7107   3.16   0.0  107  1.5  0.86  0.00  0.00  0.00     4
  7 JUL  111 Beg Gr Fil    8834   2.72   0.0  113  1.3  0.94  0.00  0.00  0.00     5
 12 AUG  147 Maturity     12678   0.00   0.0  128  1.0  0.90  0.00  0.00  0.00     6
 13 AUG  148 Maturity     12678   0.00   0.0  128  1.0  0.00  0.00  0.00  0.00     7
 25 AUG  160 Harvest      12678   0.00   0.0  128  1.0  0.00  0.00  0.00  0.00     7


*MAIN GROWTH AND DEVELOPMENT VARIABLES

@     VARIABLE                                         SIMULATED     MEASURED
      --------                                         ---------     --------
      Anthesis day (dap)                                     102          -99
      Physiological maturity day (dap)                       148          -99
      Yield at harvest maturity (kg [dm]/ha)                5514         6934
      Number at maturity (no/m2)                           14180          -99
      Unit wt at maturity (g [dm]/unit)                     38.9          -99
      Number at maturity (no/unit)                          35.4          -99
      Tops weight at maturity (kg [dm]/ha)                 12678          -99
      By-product produced (stalk) at maturity (kg[dm]/ha       0          -99
      Leaf area index, maximum                              3.65          -99
      Harvest index at maturity                            0.435          -99
      Grain N at maturity (kg/ha)                            104          -99
      Tops N at maturity (kg/ha)                             128          -99
      Stem N at maturity (kg/ha)                               0          -99
      Grain N at maturity (%)                                1.9          -99
      Tops weight at anthesis (kg [dm]/ha)                     2          -99
      Tops N at anthesis (kg/ha)                              35          -99
      Leaf number per stem at maturity                      0.00          -99
      Emergence day (dap)                                     12          -99


*ENVIRONMENTAL AND STRESS FACTORS

 |-----Development Phase------|--------------------------------------Environment--------------------------------------|-----------------Stress-----------------|
                              |---------------Average--------------|-----Cumulative-----|--------Count of days--------|          (0=Min, 1=Max Stress)         |
                         Time  Temp  Temp  Temp Solar Photop                Evapo    Pot TMIN TMIN TMAX TMAX TMAX RAIN|----Water----|---Nitrogen--|-Phosphorus-|
                         Span   Max   Min  Mean   Rad  [day]    CO2   Rain  Trans     ET   <    <    >    >    >    >   Photo         Photo         Photo
                         days     C     C     C MJ/m2     hr    ppm     mm     mm    mm   0 C  2 C 30 C 32 C 34 C  0mm  synth Growth  synth Growth  synth Growth
----------------------------------------------------------------------------------------------------------------------------------------------------------------
 Emergence-End Juvenile    50  15.9   4.6  10.2  16.7  13.87  314.9  140.0  109.4  163.7    4   17    0    0    0   19  0.671  0.729  0.004  0.009  0.000  0.000
 End Juvenil-Floral Init   24  19.9   9.6  14.8  17.8  15.54  314.9   60.0   51.8   84.8    0    0    0    0    0    7  0.816  0.878  0.000  0.000  0.000  0.000
 Floral Init-End Lf Grow   16  19.8  10.4  15.1  17.8  15.88  314.9   72.0   48.9   56.0    0    0    0    0    0    6  0.789  0.860  0.000  0.000  0.000  0.000
 End Lf Grth-Beg Grn Fil    9  28.6  14.2  21.4  25.7  15.82  314.9    0.0   56.0   52.0    0    0    3    1    0    0  0.893  0.929  0.000  0.000  0.000  0.000
 Grain Filling Phase       36  27.1  13.1  20.1  20.6  15.14  314.9   18.0   98.1  168.5    0    0   11    7    1    8  0.921  0.930  0.000  0.000  0.000  0.000
   
 Planting to Harvest      160  20.5   8.7  14.6  17.9  14.59  314.9  330.0  394.6  600.3    8   24   17   10    1   47  0.669  0.707  0.001  0.003  0.000  0.000
----------------------------------------------------------------------------------------------------------------------------------------------------------------


*Resource Productivity
 Growing season length: 160 days 

 Precipitation during growing season       330.0 mm[rain]
   Dry Matter Productivity                  3.84 kg[DM]/m3[rain]          =   38.4 kg[DM]/ha per mm[rain]
   Yield Productivity                       1.67 kg[grain yield]/m3[rain] =   16.7 kg[yield]/ha per mm[rain]

 Evapotranspiration during growing season  394.6 mm[ET]
   Dry Matter Productivity                  3.21 kg[DM]/m3[ET]            =   32.1 kg[DM]/ha per mm[ET]
   Yield Productivity                       1.40 kg[grain yield]/m3[ET]   =   14.0 kg[yield]/ha per mm[ET]

 Transpiration during growing season       258.9 mm[EP]
   Dry Matter Productivity                  4.90 kg[DM]/m3[EP]            =   49.0 kg[DM]/ha per mm[EP]
   Yield Productivity                       2.13 kg[grain yield]/m3[EP]   =   21.3 kg[yield]/ha per mm[EP]

 N applied during growing season            120. kg[N applied]/ha
   Dry Matter Productivity                 105.7 kg[DM]/kg[N applied]
   Yield Productivity                       46.0 kg[yield]/kg[N applied]

 N uptake during growing season              161 kg[N uptake]/ha
   Dry Matter Productivity                  78.7 kg[DM]/kg[N uptake]
   Yield Productivity                       34.2 kg[yield]/kg[N uptake]

--------------------------------------------------------------------------------------------------------------

                     Wheat YIELD :     5514 kg/ha    [Dry weight] 

**************************************************************************************************************

*DSSAT Cropping System Model Ver. 4.8.5.000 -release  NOV 27, 2025 15:48:13

*RUN   5        : 5                         WHAPS048 TUDU1501    5
 MODEL          : WHAPS048 - Wheat
 EXPERIMENT     : TUDU1501 WH
 DATA PATH      :
 TREATMENT  5   : 5                         WHAPS048


 CROP           : Wheat            CULTIVAR : Bacanora 88      ECOTYPE :IB0003
 STARTING DATE  : MAR 18   15
 PLANTING DATE  : MAR 18   15      PLANTS/m2 :   400.0    ROW SPACING :  12.cm
 HARVEST DATE   : AUG 25   15
 WEATHER        : TUDU     15
 SOIL           : DE02157980     TEXTURE : -99   - -99
 SOIL INIT COND : DEPTH:210cm EXTR. H2O:268.2mm  NO3: 93.5kg/ha  NH4:  9.1kg/ha
 WATER BALANCE  : RAINFED
 IRRIGATION     : NOT IRRIGATED
 NITROGEN BAL.  : SOIL-N & N-UPTAKE SIMULATION; NO N-FIXATION
 N-FERTILIZER   :      120 kg/ha IN     3 APPLICATIONS
 RESIDUE/MANURE : INITIAL :  1500 kg/ha ;       0 kg/ha IN     0 APPLICATIONS
 ENVIRONM. OPT. : DAYL=    0.00  SRAD=    0.00  TMAX=    0.00  TMIN=    0.00
                  RAIN=    0.00  CO2 =    0.00  DEW =    0.00  WIND=    0.00
 SIMULATION OPT : WATER   :Y  NITROGEN:Y  N-FIX:N  PHOSPH :N  PESTS  :N
                  PHOTO   :C  ET      :R  INFIL:S  HYDROL :R  SOM    :G
                  CO2 315ppm  NSWIT   :1  EVAP :S  SOIL   :2  STEMP  :D
 MANAGEMENT OPT : PLANTING:R  IRRIG   :N  FERT :R  RESIDUE:N  HARVEST:R
                  WEATHER :M  TILLAGE :Y

*SUMMARY OF SOIL AND GENETIC INPUT PARAMETERS

   SOIL LOWER UPPER   SAT  EXTR  INIT   ROOT   BULK     pH    NO3    NH4    ORG
  DEPTH LIMIT LIMIT    SW    SW    SW   DIST   DENS                          C
   cm   cm3/cm3    cm3/cm3    cm3/cm3         g/cm3         ugN/g  ugN/g     %
-------------------------------------------------------------------------------
  0-  5 0.108 0.236 0.391 0.128 0.223   1.00   1.29   6.20   3.10   0.30   3.19
  5- 15 0.118 0.246 0.395 0.128 0.234   0.86   1.31   6.28   3.10   0.30   2.72
 15- 20 0.123 0.252 0.396 0.129 0.249   0.80   1.32   6.31   3.10   0.30   2.49
 20- 30 0.133 0.262 0.399 0.129 0.249   0.70   1.34   6.37   3.10   0.30   2.06
 30- 40 0.138 0.267 0.400 0.129 0.269   0.63   1.36   6.41   3.10   0.30   1.81
 40- 50 0.142 0.271 0.402 0.129 0.269   0.57   1.37   6.44   3.10   0.30   1.57
 50- 60 0.147 0.276 0.403 0.129 0.269   0.50   1.39   6.48   3.10   0.30   1.32
 60- 70 0.147 0.276 0.403 0.129 0.268   0.47   1.40   6.52   3.10   0.30   1.18
 70- 90 0.146 0.275 0.402 0.129 0.268   0.41   1.44   6.58   3.10   0.30   0.91
 90-110 0.145 0.273 0.402 0.128 0.264   0.41   1.46   6.64   3.10   0.30   0.74
110-130 0.143 0.270 0.401 0.127 0.259   0.35   1.47   6.67   3.10   0.30   0.67
130-150 0.141 0.268 0.400 0.127 0.259   0.32   1.48   6.71   3.10   0.30   0.61
150-170 0.139 0.266 0.399 0.127 0.259   0.26   1.49   6.75   3.10   0.30   0.54
170-190 0.137 0.263 0.398 0.126 0.259   0.21   1.50   6.78   3.10   0.30   0.47
190-210 0.136 0.262 0.398 0.126 0.259   0.18   1.51   6.80   3.10   0.30   0.44

TOT-210  29.1  56.0  83.9  26.8  54.5  <--cm   -  kg/ha-->   93.5    9.1 310026
SOIL ALBEDO    : 0.10      EVAPORATION LIMIT : 6.00         MIN. FACTOR  : 1.00
RUNOFF CURVE # :75.00      DRAINAGE RATE     : 0.50         FERT. FACTOR : 1.00

 Wheat            CULTIVAR: AW0005-Bacanora 88        ECOTYPE: IB0003


*SIMULATED CROP AND SOIL STATUS AT MAIN DEVELOPMENT STAGES

 RUN NO.     5     5                       

        CROP GROWTH     BIOMASS         LEAF   CROP N     STRESS      STRESS                                           
   DATE  AGE STAGE        kg/ha    LAI   NUM  kg/ha  %   H2O  Nitr Phos1 Phos2  RSTG                                   
 ------  --- ----------   -----  -----  ----  ---  ---  ----  ----  ----  ----  ----                                   
 18 MAR    0 Fallow           0   0.00   0.0    0  0.0  0.00  0.00  0.00  0.00     8
 18 MAR    0 Sowing           0   0.00   0.0    0  0.0  0.00  0.00  0.00  0.00     8
 20 MAR    2 Germinate        0   0.00   0.0    0  0.0  0.00  0.00  0.00  0.00     9
 30 MAR   12 Emergence       11   0.02   0.0    1  9.1  0.00  0.00  0.00  0.00     1
 19 MAY   62 End Juveni    2023   2.73   0.0   67  3.3  0.74  0.01  0.00  0.00     2
 12 JUN   86 End Veg       5068   4.41   0.0  122  2.4  0.86  0.00  0.00  0.00     3
 28 JUN  102 End Ear Gr    8193   4.04   0.0  138  1.7  0.84  0.00  0.00  0.00     4
  7 JUL  111 Beg Gr Fil   10051   3.48   0.0  142  1.4  0.93  0.00  0.00  0.00     5
 12 AUG  147 Maturity     14242   0.00   0.0  153  1.1  0.90  0.00  0.00  0.00     6
 13 AUG  148 Maturity     14242   0.00   0.0  153  1.1  0.00  0.00  0.00  0.00     7
 25 AUG  160 Harvest      14242   0.00   0.0  153  1.1  0.00  0.00  0.00  0.00     7


*MAIN GROWTH AND DEVELOPMENT VARIABLES

@     VARIABLE                                         SIMULATED     MEASURED
      --------                                         ---------     --------
      Anthesis day (dap)                                     102          -99
      Physiological maturity day (dap)                       148          -99
      Yield at harvest maturity (kg [dm]/ha)                6001         7360
      Number at maturity (no/m2)                           15655          -99
      Unit wt at maturity (g [dm]/unit)                     38.3          -99
      Number at maturity (no/unit)                          39.1          -99
      Tops weight at maturity (kg [dm]/ha)                 14242          -99
      By-product produced (stalk) at maturity (kg[dm]/ha       0          -99
      Leaf area index, maximum                              4.53          -99
      Harvest index at maturity                            0.421          -99
      Grain N at maturity (kg/ha)                            126          -99
      Tops N at maturity (kg/ha)                             153          -99
      Stem N at maturity (kg/ha)                               0          -99
      Grain N at maturity (%)                                2.1          -99
      Tops weight at anthesis (kg [dm]/ha)                     2          -99
      Tops N at anthesis (kg/ha)                              35          -99
      Leaf number per stem at maturity                      0.00          -99
      Emergence day (dap)                                     12          -99


*ENVIRONMENTAL AND STRESS FACTORS

 |-----Development Phase------|--------------------------------------Environment--------------------------------------|-----------------Stress-----------------|
                              |---------------Average--------------|-----Cumulative-----|--------Count of days--------|          (0=Min, 1=Max Stress)         |
                         Time  Temp  Temp  Temp Solar Photop                Evapo    Pot TMIN TMIN TMAX TMAX TMAX RAIN|----Water----|---Nitrogen--|-Phosphorus-|
                         Span   Max   Min  Mean   Rad  [day]    CO2   Rain  Trans     ET   <    <    >    >    >    >   Photo         Photo         Photo
                         days     C     C     C MJ/m2     hr    ppm     mm     mm    mm   0 C  2 C 30 C 32 C 34 C  0mm  synth Growth  synth Growth  synth Growth
----------------------------------------------------------------------------------------------------------------------------------------------------------------
 Emergence-End Juvenile    50  15.9   4.6  10.2  16.7  13.87  314.9  140.0  110.3  163.5    4   17    0    0    0   19  0.670  0.728  0.004  0.009  0.000  0.000
 End Juvenil-Floral Init   24  19.9   9.6  14.8  17.8  15.54  314.9   60.0   59.0   84.3    0    0    0    0    0    7  0.788  0.859  0.000  0.000  0.000  0.000
 Floral Init-End Lf Grow   16  19.8  10.4  15.1  17.8  15.88  314.9   72.0   49.8   55.6    0    0    0    0    0    6  0.767  0.845  0.000  0.000  0.000  0.000
 End Lf Grth-Beg Grn Fil    9  28.6  14.2  21.4  25.7  15.82  314.9    0.0   58.6   51.6    0    0    3    1    0    0  0.887  0.925  0.000  0.000  0.000  0.000
 Grain Filling Phase       36  27.1  13.1  20.1  20.6  15.14  314.9   18.0   95.3  166.7    0    0   11    7    1    8  0.923  0.931  0.000  0.000  0.000  0.000
   
 Planting to Harvest      160  20.5   8.7  14.6  17.9  14.59  314.9  330.0  403.5  596.9    8   24   17   10    1   47  0.662  0.702  0.001  0.003  0.000  0.000
----------------------------------------------------------------------------------------------------------------------------------------------------------------


*Resource Productivity
 Growing season length: 160 days 

 Precipitation during growing season       330.0 mm[rain]
   Dry Matter Productivity                  4.32 kg[DM]/m3[rain]          =   43.2 kg[DM]/ha per mm[rain]
   Yield Productivity                       1.82 kg[grain yield]/m3[rain] =   18.2 kg[yield]/ha per mm[rain]

 Evapotranspiration during growing season  403.5 mm[ET]
   Dry Matter Productivity                  3.53 kg[DM]/m3[ET]            =   35.3 kg[DM]/ha per mm[ET]
   Yield Productivity                       1.49 kg[grain yield]/m3[ET]   =   14.9 kg[yield]/ha per mm[ET]

 Transpiration during growing season       278.1 mm[EP]
   Dry Matter Productivity                  5.12 kg[DM]/m3[EP]            =   51.2 kg[DM]/ha per mm[EP]
   Yield Productivity                       2.16 kg[grain yield]/m3[EP]   =   21.6 kg[yield]/ha per mm[EP]

 N applied during growing season            120. kg[N applied]/ha
   Dry Matter Productivity                 118.7 kg[DM]/kg[N applied]
   Yield Productivity                       50.0 kg[yield]/kg[N applied]

 N uptake during growing season              193 kg[N uptake]/ha
   Dry Matter Productivity                  73.8 kg[DM]/kg[N uptake]
   Yield Productivity                       31.1 kg[yield]/kg[N uptake]

--------------------------------------------------------------------------------------------------------------

                     Wheat YIELD :     6001 kg/ha    [Dry weight] 

**************************************************************************************************************

*DSSAT Cropping System Model Ver. 4.8.5.000 -release  NOV 27, 2025 15:48:13

*RUN   6        : 6                         WHAPS048 TUDU1501    6
 MODEL          : WHAPS048 - Wheat
 EXPERIMENT     : TUDU1501 WH
 DATA PATH      :
 TREATMENT  6   : 6                         WHAPS048


 CROP           : Wheat            CULTIVAR : Bacanora 88      ECOTYPE :IB0003
 STARTING DATE  : MAR 18   15
 PLANTING DATE  : MAR 18   15      PLANTS/m2 :   400.0    ROW SPACING :  12.cm
 HARVEST DATE   : AUG 25   15
 WEATHER        : TUDU     15
 SOIL           : DE02157980     TEXTURE : -99   - -99
 SOIL INIT COND : DEPTH:210cm EXTR. H2O:268.2mm  NO3: 93.5kg/ha  NH4:  9.1kg/ha
 WATER BALANCE  : RAINFED
 IRRIGATION     : NOT IRRIGATED
 NITROGEN BAL.  : SOIL-N & N-UPTAKE SIMULATION; NO N-FIXATION
 N-FERTILIZER   :      120 kg/ha IN     3 APPLICATIONS
 RESIDUE/MANURE : INITIAL :  1500 kg/ha ;       0 kg/ha IN     0 APPLICATIONS
 ENVIRONM. OPT. : DAYL=    0.00  SRAD=    0.00  TMAX=    0.00  TMIN=    0.00
                  RAIN=    0.00  CO2 =    0.00  DEW =    0.00  WIND=    0.00
 SIMULATION OPT : WATER   :Y  NITROGEN:Y  N-FIX:N  PHOSPH :N  PESTS  :N
                  PHOTO   :C  ET      :R  INFIL:S  HYDROL :R  SOM    :G
                  CO2 315ppm  NSWIT   :1  EVAP :S  SOIL   :2  STEMP  :D
 MANAGEMENT OPT : PLANTING:R  IRRIG   :N  FERT :R  RESIDUE:N  HARVEST:R
                  WEATHER :M  TILLAGE :Y

*SUMMARY OF SOIL AND GENETIC INPUT PARAMETERS

   SOIL LOWER UPPER   SAT  EXTR  INIT   ROOT   BULK     pH    NO3    NH4    ORG
  DEPTH LIMIT LIMIT    SW    SW    SW   DIST   DENS                          C
   cm   cm3/cm3    cm3/cm3    cm3/cm3         g/cm3         ugN/g  ugN/g     %
-------------------------------------------------------------------------------
  0-  5 0.108 0.236 0.391 0.128 0.223   1.00   1.29   6.20   3.10   0.30   3.19
  5- 15 0.118 0.246 0.395 0.128 0.234   0.86   1.31   6.28   3.10   0.30   2.72
 15- 20 0.123 0.252 0.396 0.129 0.249   0.80   1.32   6.31   3.10   0.30   2.49
 20- 30 0.133 0.262 0.399 0.129 0.249   0.70   1.34   6.37   3.10   0.30   2.06
 30- 40 0.138 0.267 0.400 0.129 0.269   0.63   1.36   6.41   3.10   0.30   1.81
 40- 50 0.142 0.271 0.402 0.129 0.269   0.57   1.37   6.44   3.10   0.30   1.57
 50- 60 0.147 0.276 0.403 0.129 0.269   0.50   1.39   6.48   3.10   0.30   1.32
 60- 70 0.147 0.276 0.403 0.129 0.268   0.47   1.40   6.52   3.10   0.30   1.18
 70- 90 0.146 0.275 0.402 0.129 0.268   0.41   1.44   6.58   3.10   0.30   0.91
 90-110 0.145 0.273 0.402 0.128 0.264   0.41   1.46   6.64   3.10   0.30   0.74
110-130 0.143 0.270 0.401 0.127 0.259   0.35   1.47   6.67   3.10   0.30   0.67
130-150 0.141 0.268 0.400 0.127 0.259   0.32   1.48   6.71   3.10   0.30   0.61
150-170 0.139 0.266 0.399 0.127 0.259   0.26   1.49   6.75   3.10   0.30   0.54
170-190 0.137 0.263 0.398 0.126 0.259   0.21   1.50   6.78   3.10   0.30   0.47
190-210 0.136 0.262 0.398 0.126 0.259   0.18   1.51   6.80   3.10   0.30   0.44

TOT-210  29.1  56.0  83.9  26.8  54.5  <--cm   -  kg/ha-->   93.5    9.1 310026
SOIL ALBEDO    : 0.10      EVAPORATION LIMIT : 6.00         MIN. FACTOR  : 1.00
RUNOFF CURVE # :75.00      DRAINAGE RATE     : 0.50         FERT. FACTOR : 1.00

 Wheat            CULTIVAR: AW0005-Bacanora 88        ECOTYPE: IB0003


*SIMULATED CROP AND SOIL STATUS AT MAIN DEVELOPMENT STAGES

 RUN NO.     6     6                       

        CROP GROWTH     BIOMASS         LEAF   CROP N     STRESS      STRESS                                           
   DATE  AGE STAGE        kg/ha    LAI   NUM  kg/ha  %   H2O  Nitr Phos1 Phos2  RSTG                                   
 ------  --- ----------   -----  -----  ----  ---  ---  ----  ----  ----  ----  ----                                   
 18 MAR    0 Fallow           0   0.00   0.0    0  0.0  0.00  0.00  0.00  0.00     8
 18 MAR    0 Sowing           0   0.00   0.0    0  0.0  0.00  0.00  0.00  0.00     8
 20 MAR    2 Germinate        0   0.00   0.0    0  0.0  0.00  0.00  0.00  0.00     9
 30 MAR   12 Emergence       11   0.02   0.0    1  9.1  0.00  0.00  0.00  0.00     1
 19 MAY   62 End Juveni    1711   2.31   0.0   51  3.0  0.75  0.01  0.00  0.00     2
 12 JUN   86 End Veg       4117   3.40   0.0   92  2.2  0.88  0.00  0.00  0.00     3
 28 JUN  102 End Ear Gr    6964   3.06   0.0  105  1.5  0.86  0.00  0.00  0.00     4
  7 JUL  111 Beg Gr Fil    8670   2.63   0.0  110  1.3  0.94  0.00  0.00  0.00     5
 12 AUG  147 Maturity     12453   0.00   0.0  125  1.0  0.90  0.00  0.00  0.00     6
 13 AUG  148 Maturity     12453   0.00   0.0  125  1.0  0.00  0.00  0.00  0.00     7
 25 AUG  160 Harvest      12453   0.00   0.0  125  1.0  0.00  0.00  0.00  0.00     7


*MAIN GROWTH AND DEVELOPMENT VARIABLES

@     VARIABLE                                         SIMULATED     MEASURED
      --------                                         ---------     --------
      Anthesis day (dap)                                     102          -99
      Physiological maturity day (dap)                       148          -99
      Yield at harvest maturity (kg [dm]/ha)                5431         6886
      Number at maturity (no/m2)                           13983          -99
      Unit wt at maturity (g [dm]/unit)                     38.8          -99
      Number at maturity (no/unit)                          35.0          -99
      Tops weight at maturity (kg [dm]/ha)                 12453          -99
      By-product produced (stalk) at maturity (kg[dm]/ha       0          -99
      Leaf area index, maximum                              3.53          -99
      Harvest index at maturity                            0.436          -99
      Grain N at maturity (kg/ha)                            102          -99
      Tops N at maturity (kg/ha)                             125          -99
      Stem N at maturity (kg/ha)                               0          -99
      Grain N at maturity (%)                                1.9          -99
      Tops weight at anthesis (kg [dm]/ha)                     2          -99
      Tops N at anthesis (kg/ha)                              35          -99
      Leaf number per stem at maturity                      0.00          -99
      Emergence day (dap)                                     12          -99


*ENVIRONMENTAL AND STRESS FACTORS

 |-----Development Phase------|--------------------------------------Environment--------------------------------------|-----------------Stress-----------------|
                              |---------------Average--------------|-----Cumulative-----|--------Count of days--------|          (0=Min, 1=Max Stress)         |
                         Time  Temp  Temp  Temp Solar Photop                Evapo    Pot TMIN TMIN TMAX TMAX TMAX RAIN|----Water----|---Nitrogen--|-Phosphorus-|
                         Span   Max   Min  Mean   Rad  [day]    CO2   Rain  Trans     ET   <    <    >    >    >    >   Photo         Photo         Photo
                         days     C     C     C MJ/m2     hr    ppm     mm     mm    mm   0 C  2 C 30 C 32 C 34 C  0mm  synth Growth  synth Growth  synth Growth
----------------------------------------------------------------------------------------------------------------------------------------------------------------
 Emergence-End Juvenile    50  15.9   4.6  10.2  16.7  13.87  314.9  140.0  109.0  163.8    4   17    0    0    0   19  0.671  0.729  0.004  0.009  0.000  0.000
 End Juvenil-Floral Init   24  19.9   9.6  14.8  17.8  15.54  314.9   60.0   50.9   84.9    0    0    0    0    0    7  0.819  0.880  0.000  0.000  0.000  0.000
 Floral Init-End Lf Grow   16  19.8  10.4  15.1  17.8  15.88  314.9   72.0   48.9   56.1    0    0    0    0    0    6  0.792  0.862  0.000  0.000  0.000  0.000
 End Lf Grth-Beg Grn Fil    9  28.6  14.2  21.4  25.7  15.82  314.9    0.0   55.4   52.1    0    0    3    1    0    0  0.894  0.930  0.000  0.000  0.000  0.000
 Grain Filling Phase       36  27.1  13.1  20.1  20.6  15.14  314.9   18.0   99.4  168.7    0    0   11    7    1    8  0.921  0.929  0.000  0.000  0.000  0.000
   
 Planting to Harvest      160  20.5   8.7  14.6  17.9  14.59  314.9  330.0  394.2  600.9    8   24   17   10    1   47  0.669  0.707  0.001  0.003  0.000  0.000
----------------------------------------------------------------------------------------------------------------------------------------------------------------


*Resource Productivity
 Growing season length: 160 days 

 Precipitation during growing season       330.0 mm[rain]
   Dry Matter Productivity                  3.77 kg[DM]/m3[rain]          =   37.7 kg[DM]/ha per mm[rain]
   Yield Productivity                       1.65 kg[grain yield]/m3[rain] =   16.5 kg[yield]/ha per mm[rain]

 Evapotranspiration during growing season  394.2 mm[ET]
   Dry Matter Productivity                  3.16 kg[DM]/m3[ET]            =   31.6 kg[DM]/ha per mm[ET]
   Yield Productivity                       1.38 kg[grain yield]/m3[ET]   =   13.8 kg[yield]/ha per mm[ET]

 Transpiration during growing season       256.9 mm[EP]
   Dry Matter Productivity                  4.85 kg[DM]/m3[EP]            =   48.5 kg[DM]/ha per mm[EP]
   Yield Productivity                       2.11 kg[grain yield]/m3[EP]   =   21.1 kg[yield]/ha per mm[EP]

 N applied during growing season            120. kg[N applied]/ha
   Dry Matter Productivity                 103.8 kg[DM]/kg[N applied]
   Yield Productivity                       45.3 kg[yield]/kg[N applied]

 N uptake during growing season              158 kg[N uptake]/ha
   Dry Matter Productivity                  78.8 kg[DM]/kg[N uptake]
   Yield Productivity                       34.4 kg[yield]/kg[N uptake]

--------------------------------------------------------------------------------------------------------------

                     Wheat YIELD :     5431 kg/ha    [Dry weight] 

**************************************************************************************************************

*DSSAT Cropping System Model Ver. 4.8.5.000 -release  NOV 27, 2025 15:48:13

*RUN   7        : 7                         WHAPS048 TUDU1501    7
 MODEL          : WHAPS048 - Wheat
 EXPERIMENT     : TUDU1501 WH
 DATA PATH      :
 TREATMENT  7   : 7                         WHAPS048


 CROP           : Wheat            CULTIVAR : Bacanora 88      ECOTYPE :IB0003
 STARTING DATE  : MAR 18   15
 PLANTING DATE  : MAR 18   15      PLANTS/m2 :   400.0    ROW SPACING :  12.cm
 HARVEST DATE   : AUG 25   15
 WEATHER        : TUDU     15
 SOIL           : DE02157980     TEXTURE : -99   - -99
 SOIL INIT COND : DEPTH:210cm EXTR. H2O:268.2mm  NO3: 93.5kg/ha  NH4:  9.1kg/ha
 WATER BALANCE  : RAINFED
 IRRIGATION     : NOT IRRIGATED
 NITROGEN BAL.  : SOIL-N & N-UPTAKE SIMULATION; NO N-FIXATION
 N-FERTILIZER   :      120 kg/ha IN     3 APPLICATIONS
 RESIDUE/MANURE : INITIAL :  1500 kg/ha ;       0 kg/ha IN     0 APPLICATIONS
 ENVIRONM. OPT. : DAYL=    0.00  SRAD=    0.00  TMAX=    0.00  TMIN=    0.00
                  RAIN=    0.00  CO2 =    0.00  DEW =    0.00  WIND=    0.00
 SIMULATION OPT : WATER   :Y  NITROGEN:Y  N-FIX:N  PHOSPH :N  PESTS  :N
                  PHOTO   :C  ET      :R  INFIL:S  HYDROL :R  SOM    :G
                  CO2 315ppm  NSWIT   :1  EVAP :S  SOIL   :2  STEMP  :D
 MANAGEMENT OPT : PLANTING:R  IRRIG   :N  FERT :R  RESIDUE:N  HARVEST:R
                  WEATHER :M  TILLAGE :Y

*SUMMARY OF SOIL AND GENETIC INPUT PARAMETERS

   SOIL LOWER UPPER   SAT  EXTR  INIT   ROOT   BULK     pH    NO3    NH4    ORG
  DEPTH LIMIT LIMIT    SW    SW    SW   DIST   DENS                          C
   cm   cm3/cm3    cm3/cm3    cm3/cm3         g/cm3         ugN/g  ugN/g     %
-------------------------------------------------------------------------------
  0-  5 0.108 0.236 0.391 0.128 0.223   1.00   1.29   6.20   3.10   0.30   3.19
  5- 15 0.118 0.246 0.395 0.128 0.234   0.86   1.31   6.28   3.10   0.30   2.72
 15- 20 0.123 0.252 0.396 0.129 0.249   0.80   1.32   6.31   3.10   0.30   2.49
 20- 30 0.133 0.262 0.399 0.129 0.249   0.70   1.34   6.37   3.10   0.30   2.06
 30- 40 0.138 0.267 0.400 0.129 0.269   0.63   1.36   6.41   3.10   0.30   1.81
 40- 50 0.142 0.271 0.402 0.129 0.269   0.57   1.37   6.44   3.10   0.30   1.57
 50- 60 0.147 0.276 0.403 0.129 0.269   0.50   1.39   6.48   3.10   0.30   1.32
 60- 70 0.147 0.276 0.403 0.129 0.268   0.47   1.40   6.52   3.10   0.30   1.18
 70- 90 0.146 0.275 0.402 0.129 0.268   0.41   1.44   6.58   3.10   0.30   0.91
 90-110 0.145 0.273 0.402 0.128 0.264   0.41   1.46   6.64   3.10   0.30   0.74
110-130 0.143 0.270 0.401 0.127 0.259   0.35   1.47   6.67   3.10   0.30   0.67
130-150 0.141 0.268 0.400 0.127 0.259   0.32   1.48   6.71   3.10   0.30   0.61
150-170 0.139 0.266 0.399 0.127 0.259   0.26   1.49   6.75   3.10   0.30   0.54
170-190 0.137 0.263 0.398 0.126 0.259   0.21   1.50   6.78   3.10   0.30   0.47
190-210 0.136 0.262 0.398 0.126 0.259   0.18   1.51   6.80   3.10   0.30   0.44

TOT-210  29.1  56.0  83.9  26.8  54.5  <--cm   -  kg/ha-->   93.5    9.1 310026
SOIL ALBEDO    : 0.10      EVAPORATION LIMIT : 6.00         MIN. FACTOR  : 1.00
RUNOFF CURVE # :75.00      DRAINAGE RATE     : 0.50         FERT. FACTOR : 1.00

 Wheat            CULTIVAR: AW0005-Bacanora 88        ECOTYPE: IB0003


*SIMULATED CROP AND SOIL STATUS AT MAIN DEVELOPMENT STAGES

 RUN NO.     7     7                       

        CROP GROWTH     BIOMASS         LEAF   CROP N     STRESS      STRESS                                           
   DATE  AGE STAGE        kg/ha    LAI   NUM  kg/ha  %   H2O  Nitr Phos1 Phos2  RSTG                                   
 ------  --- ----------   -----  -----  ----  ---  ---  ----  ----  ----  ----  ----                                   
 18 MAR    0 Fallow           0   0.00   0.0    0  0.0  0.00  0.00  0.00  0.00     8
 18 MAR    0 Sowing           0   0.00   0.0    0  0.0  0.00  0.00  0.00  0.00     8
 20 MAR    2 Germinate        0   0.00   0.0    0  0.0  0.00  0.00  0.00  0.00     9
 30 MAR   12 Emergence       11   0.02   0.0    1  9.1  0.00  0.00  0.00  0.00     1
 19 MAY   62 End Juveni    2024   2.74   0.0   67  3.3  0.74  0.01  0.00  0.00     2
 12 JUN   86 End Veg       5027   4.35   0.0  110  2.2  0.86  0.00  0.00  0.00     3
 28 JUN  102 End Ear Gr    8062   3.91   0.0  123  1.5  0.84  0.00  0.00  0.00     4
  7 JUL  111 Beg Gr Fil    9904   3.36   0.0  129  1.3  0.93  0.00  0.00  0.00     5
 12 AUG  147 Maturity     14028   0.00   0.0  145  1.0  0.90  0.00  0.00  0.00     6
 13 AUG  148 Maturity     14028   0.00   0.0  145  1.0  0.00  0.00  0.00  0.00     7
 25 AUG  160 Harvest      14028   0.00   0.0  145  1.0  0.00  0.00  0.00  0.00     7


*MAIN GROWTH AND DEVELOPMENT VARIABLES

@     VARIABLE                                         SIMULATED     MEASURED
      --------                                         ---------     --------
      Anthesis day (dap)                                     102          -99
      Physiological maturity day (dap)                       148          -99
      Yield at harvest maturity (kg [dm]/ha)                5912         7711
      Number at maturity (no/m2)                           15324          -99
      Unit wt at maturity (g [dm]/unit)                     38.6          -99
      Number at maturity (no/unit)                          38.3          -99
      Tops weight at maturity (kg [dm]/ha)                 14028          -99
      By-product produced (stalk) at maturity (kg[dm]/ha       0          -99
      Leaf area index, maximum                              4.50          -99
      Harvest index at maturity                            0.421          -99
      Grain N at maturity (kg/ha)                            119          -99
      Tops N at maturity (kg/ha)                             145          -99
      Stem N at maturity (kg/ha)                               0          -99
      Grain N at maturity (%)                                2.0          -99
      Tops weight at anthesis (kg [dm]/ha)                     2          -99
      Tops N at anthesis (kg/ha)                              35          -99
      Leaf number per stem at maturity                      0.00          -99
      Emergence day (dap)                                     12          -99


*ENVIRONMENTAL AND STRESS FACTORS

 |-----Development Phase------|--------------------------------------Environment--------------------------------------|-----------------Stress-----------------|
                              |---------------Average--------------|-----Cumulative-----|--------Count of days--------|          (0=Min, 1=Max Stress)         |
                         Time  Temp  Temp  Temp Solar Photop                Evapo    Pot TMIN TMIN TMAX TMAX TMAX RAIN|----Water----|---Nitrogen--|-Phosphorus-|
                         Span   Max   Min  Mean   Rad  [day]    CO2   Rain  Trans     ET   <    <    >    >    >    >   Photo         Photo         Photo
                         days     C     C     C MJ/m2     hr    ppm     mm     mm    mm   0 C  2 C 30 C 32 C 34 C  0mm  synth Growth  synth Growth  synth Growth
----------------------------------------------------------------------------------------------------------------------------------------------------------------
 Emergence-End Juvenile    50  15.9   4.6  10.2  16.7  13.87  314.9  140.0  110.3  163.5    4   17    0    0    0   19  0.670  0.728  0.004  0.009  0.000  0.000
 End Juvenil-Floral Init   24  19.9   9.6  14.8  17.8  15.54  314.9   60.0   58.2   84.3    0    0    0    0    0    7  0.788  0.859  0.000  0.000  0.000  0.000
 Floral Init-End Lf Grow   16  19.8  10.4  15.1  17.8  15.88  314.9   72.0   48.8   55.6    0    0    0    0    0    6  0.763  0.843  0.000  0.000  0.000  0.000
 End Lf Grth-Beg Grn Fil    9  28.6  14.2  21.4  25.7  15.82  314.9    0.0   58.2   51.6    0    0    3    1    0    0  0.881  0.921  0.000  0.000  0.000  0.000
 Grain Filling Phase       36  27.1  13.1  20.1  20.6  15.14  314.9   18.0   97.1  167.0    0    0   11    7    1    8  0.922  0.930  0.000  0.000  0.000  0.000
   
 Planting to Harvest      160  20.5   8.7  14.6  17.9  14.59  314.9  330.0  403.2  597.2    8   24   17   10    1   47  0.661  0.702  0.001  0.003  0.000  0.000
----------------------------------------------------------------------------------------------------------------------------------------------------------------


*Resource Productivity
 Growing season length: 160 days 

 Precipitation during growing season       330.0 mm[rain]
   Dry Matter Productivity                  4.25 kg[DM]/m3[rain]          =   42.5 kg[DM]/ha per mm[rain]
   Yield Productivity                       1.79 kg[grain yield]/m3[rain] =   17.9 kg[yield]/ha per mm[rain]

 Evapotranspiration during growing season  403.2 mm[ET]
   Dry Matter Productivity                  3.48 kg[DM]/m3[ET]            =   34.8 kg[DM]/ha per mm[ET]
   Yield Productivity                       1.47 kg[grain yield]/m3[ET]   =   14.7 kg[yield]/ha per mm[ET]

 Transpiration during growing season       276.9 mm[EP]
   Dry Matter Productivity                  5.07 kg[DM]/m3[EP]            =   50.7 kg[DM]/ha per mm[EP]
   Yield Productivity                       2.13 kg[grain yield]/m3[EP]   =   21.3 kg[yield]/ha per mm[EP]

 N applied during growing season            120. kg[N applied]/ha
   Dry Matter Productivity                 116.9 kg[DM]/kg[N applied]
   Yield Productivity                       49.3 kg[yield]/kg[N applied]

 N uptake during growing season              185 kg[N uptake]/ha
   Dry Matter Productivity                  75.8 kg[DM]/kg[N uptake]
   Yield Productivity                       32.0 kg[yield]/kg[N uptake]

--------------------------------------------------------------------------------------------------------------

                     Wheat YIELD :     5912 kg/ha    [Dry weight] 

**************************************************************************************************************

*DSSAT Cropping System Model Ver. 4.8.5.000 -release  NOV 27, 2025 15:48:13

*RUN   8        : 8                         WHAPS048 TUDU1501    8
 MODEL          : WHAPS048 - Wheat
 EXPERIMENT     : TUDU1501 WH
 DATA PATH      :
 TREATMENT  8   : 8                         WHAPS048


 CROP           : Wheat            CULTIVAR : Bacanora 88      ECOTYPE :IB0003
 STARTING DATE  : MAR 18   15
 PLANTING DATE  : MAR 18   15      PLANTS/m2 :   400.0    ROW SPACING :  12.cm
 HARVEST DATE   : AUG 25   15
 WEATHER        : TUDU     15
 SOIL           : DE02157980     TEXTURE : -99   - -99
 SOIL INIT COND : DEPTH:210cm EXTR. H2O:268.2mm  NO3: 93.5kg/ha  NH4:  9.1kg/ha
 WATER BALANCE  : RAINFED
 IRRIGATION     : NOT IRRIGATED
 NITROGEN BAL.  : SOIL-N & N-UPTAKE SIMULATION; NO N-FIXATION
 N-FERTILIZER   :      180 kg/ha IN     3 APPLICATIONS
 RESIDUE/MANURE : INITIAL :  1500 kg/ha ;       0 kg/ha IN     0 APPLICATIONS
 ENVIRONM. OPT. : DAYL=    0.00  SRAD=    0.00  TMAX=    0.00  TMIN=    0.00
                  RAIN=    0.00  CO2 =    0.00  DEW =    0.00  WIND=    0.00
 SIMULATION OPT : WATER   :Y  NITROGEN:Y  N-FIX:N  PHOSPH :N  PESTS  :N
                  PHOTO   :C  ET      :R  INFIL:S  HYDROL :R  SOM    :G
                  CO2 315ppm  NSWIT   :1  EVAP :S  SOIL   :2  STEMP  :D
 MANAGEMENT OPT : PLANTING:R  IRRIG   :N  FERT :R  RESIDUE:N  HARVEST:R
                  WEATHER :M  TILLAGE :Y

*SUMMARY OF SOIL AND GENETIC INPUT PARAMETERS

   SOIL LOWER UPPER   SAT  EXTR  INIT   ROOT   BULK     pH    NO3    NH4    ORG
  DEPTH LIMIT LIMIT    SW    SW    SW   DIST   DENS                          C
   cm   cm3/cm3    cm3/cm3    cm3/cm3         g/cm3         ugN/g  ugN/g     %
-------------------------------------------------------------------------------
  0-  5 0.108 0.236 0.391 0.128 0.223   1.00   1.29   6.20   3.10   0.30   3.19
  5- 15 0.118 0.246 0.395 0.128 0.234   0.86   1.31   6.28   3.10   0.30   2.72
 15- 20 0.123 0.252 0.396 0.129 0.249   0.80   1.32   6.31   3.10   0.30   2.49
 20- 30 0.133 0.262 0.399 0.129 0.249   0.70   1.34   6.37   3.10   0.30   2.06
 30- 40 0.138 0.267 0.400 0.129 0.269   0.63   1.36   6.41   3.10   0.30   1.81
 40- 50 0.142 0.271 0.402 0.129 0.269   0.57   1.37   6.44   3.10   0.30   1.57
 50- 60 0.147 0.276 0.403 0.129 0.269   0.50   1.39   6.48   3.10   0.30   1.32
 60- 70 0.147 0.276 0.403 0.129 0.268   0.47   1.40   6.52   3.10   0.30   1.18
 70- 90 0.146 0.275 0.402 0.129 0.268   0.41   1.44   6.58   3.10   0.30   0.91
 90-110 0.145 0.273 0.402 0.128 0.264   0.41   1.46   6.64   3.10   0.30   0.74
110-130 0.143 0.270 0.401 0.127 0.259   0.35   1.47   6.67   3.10   0.30   0.67
130-150 0.141 0.268 0.400 0.127 0.259   0.32   1.48   6.71   3.10   0.30   0.61
150-170 0.139 0.266 0.399 0.127 0.259   0.26   1.49   6.75   3.10   0.30   0.54
170-190 0.137 0.263 0.398 0.126 0.259   0.21   1.50   6.78   3.10   0.30   0.47
190-210 0.136 0.262 0.398 0.126 0.259   0.18   1.51   6.80   3.10   0.30   0.44

TOT-210  29.1  56.0  83.9  26.8  54.5  <--cm   -  kg/ha-->   93.5    9.1 310026
SOIL ALBEDO    : 0.10      EVAPORATION LIMIT : 6.00         MIN. FACTOR  : 1.00
RUNOFF CURVE # :75.00      DRAINAGE RATE     : 0.50         FERT. FACTOR : 1.00

 Wheat            CULTIVAR: AW0005-Bacanora 88        ECOTYPE: IB0003


*SIMULATED CROP AND SOIL STATUS AT MAIN DEVELOPMENT STAGES

 RUN NO.     8     8                       

        CROP GROWTH     BIOMASS         LEAF   CROP N     STRESS      STRESS                                           
   DATE  AGE STAGE        kg/ha    LAI   NUM  kg/ha  %   H2O  Nitr Phos1 Phos2  RSTG                                   
 ------  --- ----------   -----  -----  ----  ---  ---  ----  ----  ----  ----  ----                                   
 18 MAR    0 Fallow           0   0.00   0.0    0  0.0  0.00  0.00  0.00  0.00     8
 18 MAR    0 Sowing           0   0.00   0.0    0  0.0  0.00  0.00  0.00  0.00     8
 20 MAR    2 Germinate        0   0.00   0.0    0  0.0  0.00  0.00  0.00  0.00     9
 30 MAR   12 Emergence       11   0.02   0.0    1  9.1  0.00  0.00  0.00  0.00     1
 19 MAY   62 End Juveni    2134   2.89   0.0   74  3.5  0.74  0.01  0.00  0.00     2
 12 JUN   86 End Veg       5455   4.82   0.0  131  2.4  0.86  0.00  0.00  0.00     3
 28 JUN  102 End Ear Gr    8633   4.43   0.0  146  1.7  0.84  0.00  0.00  0.00     4
  7 JUL  111 Beg Gr Fil   10530   3.81   0.0  154  1.5  0.93  0.00  0.00  0.00     5
 12 AUG  147 Maturity     14848   0.00   0.0  167  1.1  0.90  0.00  0.00  0.00     6
 13 AUG  148 Maturity     14848   0.00   0.0  167  1.1  0.00  0.00  0.00  0.00     7
 25 AUG  160 Harvest      14848   0.00   0.0  167  1.1  0.00  0.00  0.00  0.00     7


*MAIN GROWTH AND DEVELOPMENT VARIABLES

@     VARIABLE                                         SIMULATED     MEASURED
      --------                                         ---------     --------
      Anthesis day (dap)                                     102          -99
      Physiological maturity day (dap)                       148          -99
      Yield at harvest maturity (kg [dm]/ha)                6171         7727
      Number at maturity (no/m2)                           16103          -99
      Unit wt at maturity (g [dm]/unit)                     38.3          -99
      Number at maturity (no/unit)                          40.3          -99
      Tops weight at maturity (kg [dm]/ha)                 14848          -99
      By-product produced (stalk) at maturity (kg[dm]/ha       0          -99
      Leaf area index, maximum                              4.95          -99
      Harvest index at maturity                            0.416          -99
      Grain N at maturity (kg/ha)                            138          -99
      Tops N at maturity (kg/ha)                             167          -99
      Stem N at maturity (kg/ha)                               0          -99
      Grain N at maturity (%)                                2.2          -99
      Tops weight at anthesis (kg [dm]/ha)                     2          -99
      Tops N at anthesis (kg/ha)                              35          -99
      Leaf number per stem at maturity                      0.00          -99
      Emergence day (dap)                                     12          -99


*ENVIRONMENTAL AND STRESS FACTORS

 |-----Development Phase------|--------------------------------------Environment--------------------------------------|-----------------Stress-----------------|
                              |---------------Average--------------|-----Cumulative-----|--------Count of days--------|          (0=Min, 1=Max Stress)         |
                         Time  Temp  Temp  Temp Solar Photop                Evapo    Pot TMIN TMIN TMAX TMAX TMAX RAIN|----Water----|---Nitrogen--|-Phosphorus-|
                         Span   Max   Min  Mean   Rad  [day]    CO2   Rain  Trans     ET   <    <    >    >    >    >   Photo         Photo         Photo
                         days     C     C     C MJ/m2     hr    ppm     mm     mm    mm   0 C  2 C 30 C 32 C 34 C  0mm  synth Growth  synth Growth  synth Growth
----------------------------------------------------------------------------------------------------------------------------------------------------------------
 Emergence-End Juvenile    50  15.9   4.6  10.2  16.7  13.87  314.9  140.0  110.1  163.4    4   17    0    0    0   19  0.669  0.727  0.004  0.009  0.000  0.000
 End Juvenil-Floral Init   24  19.9   9.6  14.8  17.8  15.54  314.9   60.0   62.4   84.1    0    0    0    0    0    7  0.776  0.852  0.000  0.000  0.000  0.000
 Floral Init-End Lf Grow   16  19.8  10.4  15.1  17.8  15.88  314.9   72.0   49.9   55.4    0    0    0    0    0    6  0.757  0.839  0.000  0.000  0.000  0.000
 End Lf Grth-Beg Grn Fil    9  28.6  14.2  21.4  25.7  15.82  314.9    0.0   58.9   51.5    0    0    3    1    0    0  0.881  0.921  0.000  0.000  0.000  0.000
 Grain Filling Phase       36  27.1  13.1  20.1  20.6  15.14  314.9   18.0   95.0  166.2    0    0   11    7    1    8  0.923  0.931  0.000  0.000  0.000  0.000
   
 Planting to Harvest      160  20.5   8.7  14.6  17.9  14.59  314.9  330.0  406.8  595.8    8   24   17   10    1   47  0.659  0.700  0.001  0.003  0.000  0.000
----------------------------------------------------------------------------------------------------------------------------------------------------------------


*Resource Productivity
 Growing season length: 160 days 

 Precipitation during growing season       330.0 mm[rain]
   Dry Matter Productivity                  4.50 kg[DM]/m3[rain]          =   45.0 kg[DM]/ha per mm[rain]
   Yield Productivity                       1.87 kg[grain yield]/m3[rain] =   18.7 kg[yield]/ha per mm[rain]

 Evapotranspiration during growing season  406.8 mm[ET]
   Dry Matter Productivity                  3.65 kg[DM]/m3[ET]            =   36.5 kg[DM]/ha per mm[ET]
   Yield Productivity                       1.52 kg[grain yield]/m3[ET]   =   15.2 kg[yield]/ha per mm[ET]

 Transpiration during growing season       285.5 mm[EP]
   Dry Matter Productivity                  5.20 kg[DM]/m3[EP]            =   52.0 kg[DM]/ha per mm[EP]
   Yield Productivity                       2.16 kg[grain yield]/m3[EP]   =   21.6 kg[yield]/ha per mm[EP]

 N applied during growing season            180. kg[N applied]/ha
   Dry Matter Productivity                  82.5 kg[DM]/kg[N applied]
   Yield Productivity                       34.3 kg[yield]/kg[N applied]

 N uptake during growing season              211 kg[N uptake]/ha
   Dry Matter Productivity                  70.4 kg[DM]/kg[N uptake]
   Yield Productivity                       29.2 kg[yield]/kg[N uptake]

--------------------------------------------------------------------------------------------------------------

                     Wheat YIELD :     6171 kg/ha    [Dry weight] 

**************************************************************************************************************

[...]

                     Wheat YIELD :     6157 kg/ha    [Dry weight] 

**************************************************************************************************************

*DSSAT Cropping System Model Ver. 4.8.5.000 -release  NOV 27, 2025 15:48:14

*RUN  14        : 14                        WHAPS048 TUDU1501   14
 MODEL          : WHAPS048 - Wheat
 EXPERIMENT     : TUDU1501 WH
 DATA PATH      :
 TREATMENT 14   : 14                        WHAPS048


 CROP           : Wheat            CULTIVAR : Bacanora 88      ECOTYPE :IB0003
 STARTING DATE  : MAR 18   15
 PLANTING DATE  : MAR 18   15      PLANTS/m2 :   400.0    ROW SPACING :  12.cm
 HARVEST DATE   : AUG 25   15
 WEATHER        : TUDU     15
 SOIL           : DE02157980     TEXTURE : -99   - -99
 SOIL INIT COND : DEPTH:210cm EXTR. H2O:268.2mm  NO3: 93.5kg/ha  NH4:  9.1kg/ha
 WATER BALANCE  : RAINFED
 IRRIGATION     : NOT IRRIGATED
 NITROGEN BAL.  : SOIL-N & N-UPTAKE SIMULATION; NO N-FIXATION
 N-FERTILIZER   :      180 kg/ha IN     3 APPLICATIONS
 RESIDUE/MANURE : INITIAL :  1500 kg/ha ;       0 kg/ha IN     0 APPLICATIONS
 ENVIRONM. OPT. : DAYL=    0.00  SRAD=    0.00  TMAX=    0.00  TMIN=    0.00
                  RAIN=    0.00  CO2 =    0.00  DEW =    0.00  WIND=    0.00
 SIMULATION OPT : WATER   :Y  NITROGEN:Y  N-FIX:N  PHOSPH :N  PESTS  :N
                  PHOTO   :C  ET      :R  INFIL:S  HYDROL :R  SOM    :G
                  CO2 315ppm  NSWIT   :1  EVAP :S  SOIL   :2  STEMP  :D
 MANAGEMENT OPT : PLANTING:R  IRRIG   :N  FERT :R  RESIDUE:N  HARVEST:R
                  WEATHER :M  TILLAGE :Y

*SUMMARY OF SOIL AND GENETIC INPUT PARAMETERS

   SOIL LOWER UPPER   SAT  EXTR  INIT   ROOT   BULK     pH    NO3    NH4    ORG
  DEPTH LIMIT LIMIT    SW    SW    SW   DIST   DENS                          C
   cm   cm3/cm3    cm3/cm3    cm3/cm3         g/cm3         ugN/g  ugN/g     %
-------------------------------------------------------------------------------
  0-  5 0.108 0.236 0.391 0.128 0.223   1.00   1.29   6.20   3.10   0.30   3.19
  5- 15 0.118 0.246 0.395 0.128 0.234   0.86   1.31   6.28   3.10   0.30   2.72
 15- 20 0.123 0.252 0.396 0.129 0.249   0.80   1.32   6.31   3.10   0.30   2.49
 20- 30 0.133 0.262 0.399 0.129 0.249   0.70   1.34   6.37   3.10   0.30   2.06
 30- 40 0.138 0.267 0.400 0.129 0.269   0.63   1.36   6.41   3.10   0.30   1.81
 40- 50 0.142 0.271 0.402 0.129 0.269   0.57   1.37   6.44   3.10   0.30   1.57
 50- 60 0.147 0.276 0.403 0.129 0.269   0.50   1.39   6.48   3.10   0.30   1.32
 60- 70 0.147 0.276 0.403 0.129 0.268   0.47   1.40   6.52   3.10   0.30   1.18
 70- 90 0.146 0.275 0.402 0.129 0.268   0.41   1.44   6.58   3.10   0.30   0.91
 90-110 0.145 0.273 0.402 0.128 0.264   0.41   1.46   6.64   3.10   0.30   0.74
110-130 0.143 0.270 0.401 0.127 0.259   0.35   1.47   6.67   3.10   0.30   0.67
130-150 0.141 0.268 0.400 0.127 0.259   0.32   1.48   6.71   3.10   0.30   0.61
150-170 0.139 0.266 0.399 0.127 0.259   0.26   1.49   6.75   3.10   0.30   0.54
170-190 0.137 0.263 0.398 0.126 0.259   0.21   1.50   6.78   3.10   0.30   0.47
190-210 0.136 0.262 0.398 0.126 0.259   0.18   1.51   6.80   3.10   0.30   0.44

TOT-210  29.1  56.0  83.9  26.8  54.5  <--cm   -  kg/ha-->   93.5    9.1 310026
SOIL ALBEDO    : 0.10      EVAPORATION LIMIT : 6.00         MIN. FACTOR  : 1.00
RUNOFF CURVE # :75.00      DRAINAGE RATE     : 0.50         FERT. FACTOR : 1.00

 Wheat            CULTIVAR: AW0005-Bacanora 88        ECOTYPE: IB0003


*SIMULATED CROP AND SOIL STATUS AT MAIN DEVELOPMENT STAGES

 RUN NO.    14     14                      

        CROP GROWTH     BIOMASS         LEAF   CROP N     STRESS      STRESS                                           
   DATE  AGE STAGE        kg/ha    LAI   NUM  kg/ha  %   H2O  Nitr Phos1 Phos2  RSTG                                   
 ------  --- ----------   -----  -----  ----  ---  ---  ----  ----  ----  ----  ----                                   
 18 MAR    0 Fallow           0   0.00   0.0    0  0.0  0.00  0.00  0.00  0.00     8
 18 MAR    0 Sowing           0   0.00   0.0    0  0.0  0.00  0.00  0.00  0.00     8
 20 MAR    2 Germinate        0   0.00   0.0    0  0.0  0.00  0.00  0.00  0.00     9
 30 MAR   12 Emergence       11   0.02   0.0    1  9.1  0.00  0.00  0.00  0.00     1
 19 MAY   62 End Juveni    2024   2.74   0.0   67  3.3  0.74  0.01  0.00  0.00     2
 12 JUN   86 End Veg       5074   4.41   0.0  123  2.4  0.86  0.00  0.00  0.00     3
 28 JUN  102 End Ear Gr    8201   4.05   0.0  153  1.9  0.84  0.00  0.00  0.00     4
  7 JUL  111 Beg Gr Fil   10060   3.49   0.0  157  1.6  0.93  0.00  0.00  0.00     5
 12 AUG  147 Maturity     14284   0.00   0.0  167  1.2  0.90  0.00  0.00  0.00     6
 13 AUG  148 Maturity     14284   0.00   0.0  167  1.2  0.00  0.00  0.00  0.00     7
 25 AUG  160 Harvest      14284   0.00   0.0  167  1.2  0.00  0.00  0.00  0.00     7


*MAIN GROWTH AND DEVELOPMENT VARIABLES

@     VARIABLE                                         SIMULATED     MEASURED
      --------                                         ---------     --------
      Anthesis day (dap)                                     102          -99
      Physiological maturity day (dap)                       148          -99
      Yield at harvest maturity (kg [dm]/ha)                6036         7907
      Number at maturity (no/m2)                           15664          -99
      Unit wt at maturity (g [dm]/unit)                     38.5          -99
      Number at maturity (no/unit)                          39.2          -99
      Tops weight at maturity (kg [dm]/ha)                 14284          -99
      By-product produced (stalk) at maturity (kg[dm]/ha       0          -99
      Leaf area index, maximum                              4.54          -99
      Harvest index at maturity                            0.423          -99
      Grain N at maturity (kg/ha)                            141          -99
      Tops N at maturity (kg/ha)                             167          -99
      Stem N at maturity (kg/ha)                               0          -99
      Grain N at maturity (%)                                2.3          -99
      Tops weight at anthesis (kg [dm]/ha)                     2          -99
      Tops N at anthesis (kg/ha)                              35          -99
      Leaf number per stem at maturity                      0.00          -99
      Emergence day (dap)                                     12          -99


*ENVIRONMENTAL AND STRESS FACTORS

 |-----Development Phase------|--------------------------------------Environment--------------------------------------|-----------------Stress-----------------|
                              |---------------Average--------------|-----Cumulative-----|--------Count of days--------|          (0=Min, 1=Max Stress)         |
                         Time  Temp  Temp  Temp Solar Photop                Evapo    Pot TMIN TMIN TMAX TMAX TMAX RAIN|----Water----|---Nitrogen--|-Phosphorus-|
                         Span   Max   Min  Mean   Rad  [day]    CO2   Rain  Trans     ET   <    <    >    >    >    >   Photo         Photo         Photo
                         days     C     C     C MJ/m2     hr    ppm     mm     mm    mm   0 C  2 C 30 C 32 C 34 C  0mm  synth Growth  synth Growth  synth Growth
----------------------------------------------------------------------------------------------------------------------------------------------------------------
 Emergence-End Juvenile    50  15.9   4.6  10.2  16.7  13.87  314.9  140.0  110.3  163.5    4   17    0    0    0   19  0.670  0.728  0.004  0.009  0.000  0.000
 End Juvenil-Floral Init   24  19.9   9.6  14.8  17.8  15.54  314.9   60.0   59.1   84.3    0    0    0    0    0    7  0.788  0.859  0.000  0.000  0.000  0.000
 Floral Init-End Lf Grow   16  19.8  10.4  15.1  17.8  15.88  314.9   72.0   49.8   55.6    0    0    0    0    0    6  0.767  0.845  0.000  0.000  0.000  0.000
 End Lf Grth-Beg Grn Fil    9  28.6  14.2  21.4  25.7  15.82  314.9    0.0   58.6   51.6    0    0    3    1    0    0  0.888  0.926  0.000  0.000  0.000  0.000
 Grain Filling Phase       36  27.1  13.1  20.1  20.6  15.14  314.9   18.0   94.1  166.7    0    0   11    7    1    8  0.924  0.931  0.000  0.000  0.000  0.000
   
 Planting to Harvest      160  20.5   8.7  14.6  17.9  14.59  314.9  330.0  402.3  596.9    8   24   17   10    1   47  0.662  0.702  0.001  0.003  0.000  0.000
----------------------------------------------------------------------------------------------------------------------------------------------------------------


*Resource Productivity
 Growing season length: 160 days 

 Precipitation during growing season       330.0 mm[rain]
   Dry Matter Productivity                  4.33 kg[DM]/m3[rain]          =   43.3 kg[DM]/ha per mm[rain]
   Yield Productivity                       1.83 kg[grain yield]/m3[rain] =   18.3 kg[yield]/ha per mm[rain]

 Evapotranspiration during growing season  402.3 mm[ET]
   Dry Matter Productivity                  3.55 kg[DM]/m3[ET]            =   35.5 kg[DM]/ha per mm[ET]
   Yield Productivity                       1.50 kg[grain yield]/m3[ET]   =   15.0 kg[yield]/ha per mm[ET]

 Transpiration during growing season       277.1 mm[EP]
   Dry Matter Productivity                  5.16 kg[DM]/m3[EP]            =   51.6 kg[DM]/ha per mm[EP]
   Yield Productivity                       2.18 kg[grain yield]/m3[EP]   =   21.8 kg[yield]/ha per mm[EP]

 N applied during growing season            180. kg[N applied]/ha
   Dry Matter Productivity                  79.4 kg[DM]/kg[N applied]
   Yield Productivity                       33.5 kg[yield]/kg[N applied]

 N uptake during growing season              210 kg[N uptake]/ha
   Dry Matter Productivity                  68.0 kg[DM]/kg[N uptake]
   Yield Productivity                       28.7 kg[yield]/kg[N uptake]

--------------------------------------------------------------------------------------------------------------

                     Wheat YIELD :     6036 kg/ha    [Dry weight] 

**************************************************************************************************************

*DSSAT Cropping System Model Ver. 4.8.5.000 -release  NOV 27, 2025 15:48:14

*RUN  15        : 15                        WHAPS048 TUDU1501   15
 MODEL          : WHAPS048 - Wheat
 EXPERIMENT     : TUDU1501 WH
 DATA PATH      :
 TREATMENT 15   : 15                        WHAPS048


 CROP           : Wheat            CULTIVAR : Bacanora 88      ECOTYPE :IB0003
 STARTING DATE  : MAR 18   15
 PLANTING DATE  : MAR 18   15      PLANTS/m2 :   400.0    ROW SPACING :  12.cm
 HARVEST DATE   : AUG 25   15
 WEATHER        : TUDU     15
 SOIL           : DE02157980     TEXTURE : -99   - -99
 SOIL INIT COND : DEPTH:210cm EXTR. H2O:268.2mm  NO3: 93.5kg/ha  NH4:  9.1kg/ha
 WATER BALANCE  : RAINFED
 IRRIGATION     : NOT IRRIGATED
 NITROGEN BAL.  : SOIL-N & N-UPTAKE SIMULATION; NO N-FIXATION
 N-FERTILIZER   :        0 kg/ha IN     0 APPLICATIONS
 RESIDUE/MANURE : INITIAL :  1500 kg/ha ;       0 kg/ha IN     0 APPLICATIONS
 ENVIRONM. OPT. : DAYL=    0.00  SRAD=    0.00  TMAX=    0.00  TMIN=    0.00
                  RAIN=    0.00  CO2 =    0.00  DEW =    0.00  WIND=    0.00
 SIMULATION OPT : WATER   :Y  NITROGEN:Y  N-FIX:N  PHOSPH :N  PESTS  :N
                  PHOTO   :C  ET      :R  INFIL:S  HYDROL :R  SOM    :G
                  CO2 315ppm  NSWIT   :1  EVAP :S  SOIL   :2  STEMP  :D
 MANAGEMENT OPT : PLANTING:R  IRRIG   :N  FERT :R  RESIDUE:N  HARVEST:R
                  WEATHER :M  TILLAGE :Y

*SUMMARY OF SOIL AND GENETIC INPUT PARAMETERS

   SOIL LOWER UPPER   SAT  EXTR  INIT   ROOT   BULK     pH    NO3    NH4    ORG
  DEPTH LIMIT LIMIT    SW    SW    SW   DIST   DENS                          C
   cm   cm3/cm3    cm3/cm3    cm3/cm3         g/cm3         ugN/g  ugN/g     %
-------------------------------------------------------------------------------
  0-  5 0.108 0.236 0.391 0.128 0.223   1.00   1.29   6.20   3.10   0.30   3.19
  5- 15 0.118 0.246 0.395 0.128 0.234   0.86   1.31   6.28   3.10   0.30   2.72
 15- 20 0.123 0.252 0.396 0.129 0.249   0.80   1.32   6.31   3.10   0.30   2.49
 20- 30 0.133 0.262 0.399 0.129 0.249   0.70   1.34   6.37   3.10   0.30   2.06
 30- 40 0.138 0.267 0.400 0.129 0.269   0.63   1.36   6.41   3.10   0.30   1.81
 40- 50 0.142 0.271 0.402 0.129 0.269   0.57   1.37   6.44   3.10   0.30   1.57
 50- 60 0.147 0.276 0.403 0.129 0.269   0.50   1.39   6.48   3.10   0.30   1.32
 60- 70 0.147 0.276 0.403 0.129 0.268   0.47   1.40   6.52   3.10   0.30   1.18
 70- 90 0.146 0.275 0.402 0.129 0.268   0.41   1.44   6.58   3.10   0.30   0.91
 90-110 0.145 0.273 0.402 0.128 0.264   0.41   1.46   6.64   3.10   0.30   0.74
110-130 0.143 0.270 0.401 0.127 0.259   0.35   1.47   6.67   3.10   0.30   0.67
130-150 0.141 0.268 0.400 0.127 0.259   0.32   1.48   6.71   3.10   0.30   0.61
150-170 0.139 0.266 0.399 0.127 0.259   0.26   1.49   6.75   3.10   0.30   0.54
170-190 0.137 0.263 0.398 0.126 0.259   0.21   1.50   6.78   3.10   0.30   0.47
190-210 0.136 0.262 0.398 0.126 0.259   0.18   1.51   6.80   3.10   0.30   0.44

TOT-210  29.1  56.0  83.9  26.8  54.5  <--cm   -  kg/ha-->   93.5    9.1 310026
SOIL ALBEDO    : 0.10      EVAPORATION LIMIT : 6.00         MIN. FACTOR  : 1.00
RUNOFF CURVE # :75.00      DRAINAGE RATE     : 0.50         FERT. FACTOR : 1.00

 Wheat            CULTIVAR: AW0005-Bacanora 88        ECOTYPE: IB0003


*SIMULATED CROP AND SOIL STATUS AT MAIN DEVELOPMENT STAGES

 RUN NO.    15     15                      

        CROP GROWTH     BIOMASS         LEAF   CROP N     STRESS      STRESS                                           
   DATE  AGE STAGE        kg/ha    LAI   NUM  kg/ha  %   H2O  Nitr Phos1 Phos2  RSTG                                   
 ------  --- ----------   -----  -----  ----  ---  ---  ----  ----  ----  ----  ----                                   
 18 MAR    0 Fallow           0   0.00   0.0    0  0.0  0.00  0.00  0.00  0.00     8
 18 MAR    0 Sowing           0   0.00   0.0    0  0.0  0.00  0.00  0.00  0.00     8
 20 MAR    2 Germinate        0   0.00   0.0    0  0.0  0.00  0.00  0.00  0.00     9
 30 MAR   12 Emergence       11   0.02   0.0    1  9.1  0.00  0.00  0.00  0.00     1
 19 MAY   62 End Juveni     784   1.03   0.0   20  2.6  0.74  0.01  0.00  0.00     2
 12 JUN   86 End Veg       1698   1.33   0.0   32  1.9  0.93  0.00  0.00  0.00     3
 28 JUN  102 End Ear Gr    2977   1.15   0.0   41  1.4  0.91  0.00  0.00  0.00     4
  7 JUL  111 Beg Gr Fil    3958   0.97   0.0   45  1.1  0.95  0.00  0.00  0.00     5
 12 AUG  147 Maturity      6001   0.00   0.0   58  1.0  0.88  0.00  0.00  0.00     6
 13 AUG  148 Maturity      6001   0.00   0.0   58  1.0  0.00  0.00  0.00  0.00     7
 25 AUG  160 Harvest       6001   0.00   0.0   58  1.0  0.00  0.00  0.00  0.00     7


*MAIN GROWTH AND DEVELOPMENT VARIABLES

@     VARIABLE                                         SIMULATED     MEASURED
      --------                                         ---------     --------
      Anthesis day (dap)                                     102          -99
      Physiological maturity day (dap)                       148          -99
      Yield at harvest maturity (kg [dm]/ha)                2936         3602
      Number at maturity (no/m2)                            6540          -99
      Unit wt at maturity (g [dm]/unit)                     44.9          -99
      Number at maturity (no/unit)                          16.3          -99
      Tops weight at maturity (kg [dm]/ha)                  6001          -99
      By-product produced (stalk) at maturity (kg[dm]/ha       0          -99
      Leaf area index, maximum                              1.46          -99
      Harvest index at maturity                            0.489          -99
      Grain N at maturity (kg/ha)                             48          -99
      Tops N at maturity (kg/ha)                              58          -99
      Stem N at maturity (kg/ha)                               0          -99
      Grain N at maturity (%)                                1.6          -99
      Tops weight at anthesis (kg [dm]/ha)                     2          -99
      Tops N at anthesis (kg/ha)                              35          -99
      Leaf number per stem at maturity                      0.00          -99
      Emergence day (dap)                                     12          -99


*ENVIRONMENTAL AND STRESS FACTORS

 |-----Development Phase------|--------------------------------------Environment--------------------------------------|-----------------Stress-----------------|
                              |---------------Average--------------|-----Cumulative-----|--------Count of days--------|          (0=Min, 1=Max Stress)         |
                         Time  Temp  Temp  Temp Solar Photop                Evapo    Pot TMIN TMIN TMAX TMAX TMAX RAIN|----Water----|---Nitrogen--|-Phosphorus-|
                         Span   Max   Min  Mean   Rad  [day]    CO2   Rain  Trans     ET   <    <    >    >    >    >   Photo         Photo         Photo
                         days     C     C     C MJ/m2     hr    ppm     mm     mm    mm   0 C  2 C 30 C 32 C 34 C  0mm  synth Growth  synth Growth  synth Growth
----------------------------------------------------------------------------------------------------------------------------------------------------------------
 Emergence-End Juvenile    50  15.9   4.6  10.2  16.7  13.87  314.9  140.0   96.3  167.5    4   17    0    0    0   19  0.667  0.726  0.004  0.009  0.000  0.000
 End Juvenil-Floral Init   24  19.9   9.6  14.8  17.8  15.54  314.9   60.0   39.8   89.1    0    0    0    0    0    7  0.883  0.922  0.000  0.000  0.000  0.000
 Floral Init-End Lf Grow   16  19.8  10.4  15.1  17.8  15.88  314.9   72.0   42.7   59.5    0    0    0    0    0    6  0.861  0.908  0.000  0.000  0.000  0.000
 End Lf Grth-Beg Grn Fil    9  28.6  14.2  21.4  25.7  15.82  314.9    0.0   34.3   55.0    0    0    3    1    0    0  0.916  0.945  0.000  0.000  0.000  0.000
 Grain Filling Phase       36  27.1  13.1  20.1  20.6  15.14  314.9   18.0   77.0  177.3    0    0   11    7    1    8  0.878  0.910  0.000  0.000  0.000  0.000
   
 Planting to Harvest      160  20.5   8.7  14.6  17.9  14.59  314.9  330.0  321.1  623.7    8   24   17   10    1   47  0.676  0.714  0.001  0.003  0.000  0.000
----------------------------------------------------------------------------------------------------------------------------------------------------------------


*Resource Productivity
 Growing season length: 160 days 

 Precipitation during growing season       330.0 mm[rain]
   Dry Matter Productivity                  1.82 kg[DM]/m3[rain]          =   18.2 kg[DM]/ha per mm[rain]
   Yield Productivity                       0.89 kg[grain yield]/m3[rain] =    8.9 kg[yield]/ha per mm[rain]

 Evapotranspiration during growing season  321.1 mm[ET]
   Dry Matter Productivity                  1.87 kg[DM]/m3[ET]            =   18.7 kg[DM]/ha per mm[ET]
   Yield Productivity                       0.91 kg[grain yield]/m3[ET]   =    9.1 kg[yield]/ha per mm[ET]

 Transpiration during growing season       133.4 mm[EP]
   Dry Matter Productivity                  4.50 kg[DM]/m3[EP]            =   45.0 kg[DM]/ha per mm[EP]
   Yield Productivity                       2.20 kg[grain yield]/m3[EP]   =   22.0 kg[yield]/ha per mm[EP]

 N uptake during growing season               75 kg[N uptake]/ha
   Dry Matter Productivity                  80.0 kg[DM]/kg[N uptake]
   Yield Productivity                       39.1 kg[yield]/kg[N uptake]

--------------------------------------------------------------------------------------------------------------

                     Wheat YIELD :     2936 kg/ha    [Dry weight] 

**************************************************************************************************************
