*PLANT N OUTPUT FILE

*DSSAT Cropping System Model Ver. 4.8.5.000 -release  NOV 27, 2025 15:48:13

*RUN   1        : 1                         WHAPS048 TUDU1501    1
 MODEL          : WHAPS048 - Wheat
 EXPERIMENT     : TUDU1501 WH
 DATA PATH      :
 TREATMENT  1   : 1                         WHAPS048
  
@YEAR DOY   DAS   DAP   CNAD   GNAD   GN%D   VN%D   NUPC   LNAD   SNAD   LN%D   SN%D   RN%D   SNN0C   SNN1C NFact1 NFact2 NFact3 NFact4  RootN lfshthN
   15 077     1     0    0.0    0.0   0.00   0.00    0.0    0.0    0.0    0.0   0.00   0.00    0.00    0.00   0.00   0.00   0.00   0.00   0.00   0.00
   15 078     2     1    0.0    0.0   0.00   0.00    0.0    0.0    0.0    0.0   0.00   0.00    0.00    0.00   0.00   0.00   0.00   0.00   0.00   0.00
   15 079     3     2    0.0    0.0   0.00   0.00    0.0    0.0    0.0    0.0   0.00   0.00    0.00    0.00   0.00   0.00   0.00   0.00   0.00   0.00
   15 080     4     3    0.0    0.0   0.00   0.00    0.0    0.0    0.0    0.0   0.00   0.00    0.00    0.00   0.00   0.00   0.00   0.00   0.00   0.00
   15 081     5     4    0.0    0.0   0.00   0.00    0.0    0.0    0.0    0.0   0.00   0.00    0.00    0.00   0.00   0.00   0.00   0.00   0.00   0.00
   15 082     6     5    0.0    0.0   0.00   0.00    0.0    0.0    0.0    0.0   0.00   0.00    0.00    0.00   0.00   0.00   0.00   0.00   0.00   0.00
   15 083     7     6    0.0    0.0   0.00   0.00    0.0    0.0    0.0    0.0   0.00   0.00    0.00    0.00   0.00   0.00   0.00   0.00   0.00   0.00
   15 084     8     7    0.0    0.0   0.00   0.00    0.0    0.0    0.0    0.0   0.00   0.00    0.00    0.00   0.00   0.00   0.00   0.00   0.00   0.00
   15 085     9     8    0.0    0.0   0.00   0.00    0.0    0.0    0.0    0.0   0.00   0.00    0.00    0.00   0.00   0.00   0.00   0.00   0.00   0.00
   15 086    10     9    0.0    0.0   0.00   0.00    0.0    0.0    0.0    0.0   0.00   0.00    0.00    0.00   0.00   0.00   0.00   0.00   0.00   0.00
   15 087    11    10    0.0    0.0   0.00   0.00    0.0    0.0    0.0    0.0   0.00   0.00    0.00    0.00   0.00   0.00   0.00   0.00   0.00   0.00
   15 088    12    11    0.0    0.0   0.00   0.00    0.0    0.0    0.0    0.0   0.00   0.00    0.00    0.00   0.00   0.00   0.00   0.00   0.00   0.00
   15 089    13    12    1.0    0.0   0.00   9.14    0.2    0.6    0.0    5.7   6.34   4.42    0.00    0.00   0.00   0.00   0.00   0.00   1.07   0.41
   15 090    14    13    1.1    0.0   0.00   7.75    0.2    0.6    0.0    5.2   6.34   4.32    0.00    0.00   0.00   0.00   0.00   0.00   1.06   0.41
   15 091    15    14    1.2    0.0   0.00   8.17    0.4    0.8    0.0    6.1   6.34   4.19    0.00    0.00   0.00   0.00   0.00   0.00   1.05   0.41
   15 092    16    15    1.3    0.0   0.00   7.85    0.4    0.8    0.0    6.0   6.34   4.13    0.00    0.00   0.00   0.00   0.00   0.00   1.04   0.41
   15 093    17    16    1.3    0.0   0.00   6.94    0.4    0.9    0.0    5.7   6.34   3.98    0.00    0.00   0.00   0.00   0.00   0.00   1.03   0.41
   15 094    18    17    1.4    0.0   0.00   6.98    0.5    0.9    0.0    6.0   6.34   3.92    0.00    0.00   0.00   0.00   0.00   0.00   1.02   0.41
   15 095    19    18    1.4    0.0   0.00   6.83    0.6    1.0    0.0    6.0   6.34   3.77    0.00    0.00   0.00   0.00   0.00   0.00   1.01   0.41
   15 096    20    19    1.5    0.0   0.00   6.63    0.6    1.0    0.0    6.0   6.34   3.65    0.00    0.00   0.00   0.00   0.00   0.00   1.00   0.41
   15 097    21    20    1.5    0.0   0.00   6.13    0.7    1.1    0.0    5.8   6.34   3.45    0.00    0.00   0.00   0.00   0.00   0.00   0.99   0.41
   15 098    22    21    1.6    0.0   0.00   5.14    0.7    1.1    0.0    5.0   6.34   3.25    0.00    0.00   0.00   0.00   0.00   0.00   0.98   0.41
   15 099    23    22    1.9    0.0   0.00   4.36    1.0    1.4    0.0    4.3   6.34   3.01    0.00    0.00   0.00   0.00   0.00   0.00   0.97   0.48
   15 100    24    23    2.6    0.0   0.00   5.04    1.8    2.0    0.0    5.1   6.34   2.81    0.00    0.00   0.22   0.48   0.73   0.73   0.96   0.64
   15 101    25    24    3.2    0.0   0.00   4.84    2.3    2.3    0.0    4.8   6.34   2.61    0.00    0.00   0.00   0.28   0.48   0.48   0.95   0.80
   15 102    26    25    3.9    0.0   0.00   4.94    3.1    2.9    0.0    5.0   6.34   2.39    0.00    0.00   0.00   0.33   0.55   0.55   0.94   0.97
   15 103    27    26    4.7    0.0   0.00   4.94    3.9    3.5    0.0    5.0   6.34   2.18    0.00    0.00   0.00   0.29   0.49   0.49   0.93   1.19
   15 104    28    27    5.2    0.0   0.00   4.56    4.4    3.9    0.0    4.6   6.34   1.94    0.00    0.00   0.00   0.28   0.47   0.47   0.92   1.33
   15 105    29    28    5.5    0.0   0.00   4.09    4.7    4.0    0.0    4.2   6.34   1.73    0.00    0.00   0.06   0.37   0.61   0.61   0.93   1.44
   15 106    30    29    5.8    0.0   0.00   3.96    4.9    4.2    0.0    4.2   6.34   1.62    0.00    0.00   0.25   0.50   0.75   0.75   0.94   1.55
   15 107    31    30    9.0    0.0   0.00   5.86    8.4    6.1    0.0    5.8   6.34   1.98    0.00    0.00   0.29   0.53   0.78   0.78   1.21   2.87
   15 108    32    31    9.6    0.0   0.00   5.85    9.3    6.4    0.0    5.8   6.34   2.04    0.00    0.00   0.00   0.00   0.00   0.00   1.44   3.17
   15 109    33    32   10.4    0.0   0.00   5.81   10.3    6.8    0.0    5.8   6.34   2.02    0.00    0.00   0.00   0.00   0.00   0.00   1.70   3.56
   15 110    34    33   11.7    0.0   0.00   5.73   11.9    7.4    0.0    5.7   6.34   1.96    0.00    0.00   0.00   0.00   0.00   0.00   1.92   4.21
   15 111    35    34   13.5    0.0   0.00   5.65   13.9    8.3    0.0    5.6   6.34   1.94    0.00    0.00   0.00   0.00   0.00   0.00   2.17   5.13
   15 112    36    35   15.6    0.0   0.00   5.59   16.4    9.4    0.0    5.6   6.34   1.93    0.00    0.00   0.00   0.00   0.00   0.00   2.50   6.22
   15 113    37    36   16.6    0.0   0.00   5.61   17.8    9.9    0.0    5.6   6.34   1.98    0.00    0.00   0.00   0.00   0.00   0.00   2.86   6.70
   15 114    38    37   18.0    0.0   0.00   5.47   19.8   10.6    0.0    5.5   6.34   1.91    0.00    0.00   0.00   0.00   0.00   0.00   3.38   7.44
   15 115    39    38   19.9    0.0   0.00   5.42   22.0   11.5    0.0    5.4   6.34   1.91    0.00    0.00   0.00   0.00   0.00   0.00   3.66   8.40
   15 116    40    39   21.9    0.0   0.00   5.16   24.4   12.5    0.0    5.2   6.34   1.85    0.00    0.00   0.00   0.00   0.00   0.00   3.96   9.42
   15 117    41    40   25.8    0.0   0.00   5.30   29.1   14.4    0.0    5.3   6.34   1.92    0.00    0.00   0.00   0.04   0.08   0.08   4.82  11.38
   15 118    42    41   27.6    0.0   0.00   5.32   31.4   15.3    0.0    5.3   6.34   1.94    0.00    0.00   0.00   0.00   0.00   0.00   5.22  12.28
   15 119    43    42   28.5    0.0   0.00   5.27   32.7   15.7    0.0    5.3   6.34   1.94    0.00    0.00   0.00   0.00   0.00   0.00   5.61  12.75
   15 120    44    43   30.7    0.0   0.00   5.22   35.9   16.8    0.0    5.2   6.34   1.93    0.00    0.00   0.00   0.00   0.00   0.00   6.47  13.88
   15 121    45    44   32.1    0.0   0.00   5.15   37.6   17.5    0.0    5.1   6.34   1.91    0.00    0.00   0.00   0.00   0.00   0.00   6.75  14.57
   15 122    46    45   33.7    0.0   0.00   5.00   39.6   18.3    0.0    5.0   6.34   1.85    0.00    0.00   0.00   0.00   0.00   0.00   7.17  15.36
   15 123    47    46   34.7    0.0   0.00   4.73   40.9   18.8    0.0    4.8   6.34   1.78    0.00    0.00   0.00   0.01   0.03   0.03   7.31  15.86
   15 124    48    47   36.3    0.0   0.00   4.44   42.9   19.6    0.0    4.5   6.34   1.67    0.00    0.00   0.00   0.09   0.17   0.17   7.63  16.69
   15 125    49    48   37.9    0.0   0.00   4.22   44.9   20.4    0.0    4.3   6.34   1.62    0.00    0.00   0.00   0.17   0.31   0.31   7.90  17.51
   15 126    50    49   38.6    0.0   0.00   4.08   45.8   20.7    0.0    4.1   6.34   1.51    0.00    0.00   0.00   0.24   0.42   0.42   8.02  17.87
   15 127    51    50   39.8    0.0   0.00   3.97   47.3   21.3    0.0    4.0   6.34   1.44    0.00    0.00   0.00   0.28   0.48   0.48   8.32  18.47
   15 128    52    51   41.2    0.0   0.00   3.87   49.2   22.0    0.0    3.9   6.34   1.37    0.00    0.00   0.00   0.30   0.51   0.51   8.73  19.17
   15 129    53    52   42.6    0.0   0.00   3.80   51.1   22.7    0.0    3.9   6.34   1.34    0.00    0.00   0.00   0.32   0.54   0.54   9.17  19.86
   15 130    54    53   43.9    0.0   0.00   3.73   53.0   23.3    0.0    3.8   6.34   1.31    0.00    0.00   0.01   0.34   0.56   0.56   9.60  20.53
   15 131    55    54   45.0    0.0   0.00   3.66   54.6   23.9    0.0    3.7   6.34   1.28    0.00    0.00   0.02   0.35   0.57   0.57   9.98  21.10
   15 132    56    55   46.0    0.0   0.00   3.53   56.0   24.3    0.0    3.6   6.34   1.22    0.00    0.00   0.04   0.36   0.59   0.59  10.30  21.59
   15 133    57    56   46.9    0.0   0.00   3.41   57.3   24.8    0.0    3.5   6.34   1.17    0.00    0.00   0.09   0.39   0.63   0.63  10.60  22.04
   15 134    58    57   47.7    0.0   0.00   3.33   58.5   25.2    0.0    3.4   6.34   1.14    0.00    0.00   0.14   0.43   0.67   0.67  10.90  22.48
   15 135    59    58   48.5    0.0   0.00   3.29   59.7   25.6    0.0    3.3   6.34   1.13    0.00    0.00   0.17   0.45   0.70   0.70  11.18  22.89
   15 136    60    59   49.3    0.0   0.00   3.24   60.8   26.0    0.0    3.3   6.34   1.11    0.00    0.00   0.18   0.45   0.70   0.70  11.43  23.27
   15 137    61    60   49.9    0.0   0.00   3.18   61.8   26.3    0.0    3.2   6.34   1.09    0.00    0.00   0.19   0.46   0.71   0.71  11.65  23.61
   15 138    62    61   50.6    0.0   0.00   3.10   62.8   26.6    0.0    3.2   6.34   1.06    0.00    0.00   0.21   0.47   0.72   0.72  11.85  23.92
   15 139    63    62   51.2    0.0   0.00   2.99   63.7   26.9    0.0    3.1   0.34   1.06    0.00    0.00   0.24   0.49   0.74   0.74  12.02  24.24
   15 140    64    63   51.8    0.0   0.00   2.93   64.6   27.2    0.1    3.0   0.34   1.07    0.00    0.00   0.30   0.54   0.78   0.78  12.15  24.52
   15 141    65    64   52.4    0.0   0.00   2.84   65.4   27.5    0.1    2.9   0.33   1.06    0.00    0.00   0.33   0.55   0.80   0.80  12.25  24.79
   15 142    66    65   53.0    0.0   0.00   2.72   66.3   27.7    0.2    2.8   0.32   1.05    0.00    0.00   0.37   0.58   0.82   0.82  12.36  25.09
   15 143    67    66   53.6    0.0   0.00   2.64   67.0   28.0    0.2    2.8   0.34   1.04    0.00    0.00   0.45   0.63   0.86   0.86  12.45  25.36
   15 144    68    67   54.2    0.0   0.00   2.59   67.8   28.2    0.3    2.7   0.36   1.04    0.00    0.00   0.48   0.66   0.88   0.88  12.51  25.60
   15 145    69    68   54.7    0.0   0.00   2.52   68.5   28.5    0.4    2.7   0.36   1.03    0.00    0.00   0.50   0.67   0.89   0.89  12.56  25.82
   15 146    70    69   55.1    0.0   0.00   2.47   69.1   28.7    0.5    2.6   0.38   1.02    0.00    0.00   0.53   0.69   0.90   0.90  12.60  26.03
   15 147    71    70   55.6    0.0   0.00   2.42   69.8   28.8    0.5    2.6   0.39   1.01    0.00    0.00   0.56   0.70   0.91   0.91  12.63  26.23
   15 148    72    71   56.1    0.0   0.00   2.34   70.4   29.0    0.6    2.5   0.38   1.00    0.00    0.00   0.58   0.72   0.92   0.92  12.66  26.43
   15 149    73    72   56.6    0.0   0.00   2.29   71.0   29.2    0.7    2.5   0.38   0.99    0.00    0.00   0.61   0.74   0.93   0.93  12.68  26.62
   15 150    74    73   57.0    0.0   0.00   2.25   71.6   29.4    0.8    2.5   0.40   0.98    0.00    0.00   0.63   0.76   0.94   0.94  12.71  26.80
   15 151    75    74   57.5    0.0   0.00   2.21   72.2   29.6    0.9    2.4   0.40   0.97    0.00    0.00   0.64   0.76   0.94   0.94  12.73  26.98
   15 152    76    75   60.8    0.0   0.00   2.28   76.7   30.8    1.8    2.5   0.69   1.04    0.00    0.00   0.65   0.76   0.94   0.94  13.75  28.27
   15 153    77    76   64.1    0.0   0.00   2.32   81.2   32.0    2.7    2.5   0.92   1.10    0.00    0.00   0.53   0.69   0.90   0.90  14.75  29.50
   15 154    78    77   66.4    0.0   0.00   2.31   84.3   32.7    3.4    2.5   0.99   1.12    0.00    0.00   0.44   0.63   0.86   0.86  15.42  30.33
   15 155    79    78   67.8    0.0   0.00   2.25   86.1   33.2    3.8    2.5   0.96   1.12    0.00    0.00   0.41   0.61   0.85   0.85  15.73  30.78
   15 156    80    79   68.5    0.0   0.00   2.18   87.1   33.4    4.1    2.4   0.90   1.10    0.00    0.00   0.42   0.61   0.85   0.85  15.84  31.01
   15 157    81    80   72.8    0.0   0.00   2.24   93.1   34.6    5.8    2.5   1.16   1.19    0.00    0.00   0.44   0.63   0.86   0.86  17.32  32.35
   15 158    82    81   75.4    0.0   0.00   2.22   96.7   35.3    7.0    2.5   1.21   1.22    0.00    0.00   0.30   0.53   0.78   0.78  18.17  33.10
   15 159    83    82   79.6    0.0   0.00   2.29  102.7   36.4    9.0    2.5   1.45   1.31    0.00    0.00   0.27   0.51   0.76   0.76  19.75  34.25
   15 160    84    83   83.8    0.0   0.00   2.36  108.7   37.3   11.2    2.5   1.68   1.41    0.00    0.00   0.13   0.42   0.67   0.67  21.36  35.33
   15 161    85    84   88.0    0.0   0.00   2.40  114.7   38.2   13.5    2.5   1.85   1.49    0.00    0.00   0.00   0.32   0.54   0.54  22.96  36.30
   15 162    86    85   90.2    0.0   0.00   2.35  117.9   38.5   14.9    2.5   1.79   1.51    0.00    0.00   0.00   0.23   0.41   0.41  23.67  36.72
   15 163    87    86   91.2    0.0   0.00   2.24  119.4   38.6   15.9    2.5   1.50   1.49    0.00    0.00   0.00   0.20   0.37   0.37  23.86  36.78
   15 164    88    87   92.2    0.0   0.00   2.16  120.7   38.6   16.8    2.5   1.34   1.47    0.00    0.00   0.00   0.22   0.39   0.39  23.98  36.78
   15 165    89    88   93.0    0.0   0.00   2.08  121.8   38.6   17.6    2.5   1.20   1.45    0.00    0.00   0.00   0.21   0.37   0.37  24.01  36.78
   15 166    90    89   93.8    0.0   0.00   2.04  122.9   38.6   18.5    2.5   1.17   1.45    0.00    0.00   0.00   0.23   0.41   0.41  24.06  36.78
   15 167    91    90   94.9    0.0   0.00   1.98  124.3   38.6   19.6    2.5   1.10   1.43    0.00    0.00   0.00   0.20   0.35   0.35  24.15  36.78
   15 168    92    91   96.0    0.0   0.00   1.92  125.7   38.6   20.7    2.5   1.04   1.42    0.00    0.00   0.00   0.21   0.37   0.37  24.22  36.78
   15 169    93    92   97.0    0.0   0.00   1.90  127.0   38.6   21.6    2.5   1.04   1.41    0.00    0.00   0.00   0.24   0.42   0.42  24.26  36.78
   15 170    94    93   97.9    0.0   0.00   1.86  128.2   38.6   22.6    2.5   1.01   1.40    0.00    0.00   0.00   0.21   0.37   0.37  24.29  36.78
   15 171    95    94   98.8    0.0   0.00   1.83  129.3   38.6   23.5    2.5   0.98   1.39    0.00    0.00   0.00   0.21   0.38   0.38  24.29  36.78
   15 172    96    95   99.6    0.0   0.00   1.79  130.4   38.6   24.3    2.5   0.95   1.38    0.00    0.00   0.00   0.20   0.36   0.36  24.27  36.78
   15 173    97    96  100.4    0.0   0.00   1.75  131.3   38.6   25.1    2.5   0.92   1.37    0.00    0.00   0.00   0.18   0.33   0.33  24.24  36.78
   15 174    98    97  101.2    0.0   0.00   1.71  132.3   38.6   25.8    2.5   0.89   1.35    0.00    0.00   0.00   0.18   0.33   0.33  24.20  36.78
   15 175    99    98  101.9    0.0   0.00   1.67  133.3   38.6   26.6    2.5   0.86   1.33    0.00    0.00   0.00   0.18   0.33   0.33  24.17  36.78
   15 176   100    99  102.7    0.0   0.00   1.62  134.3   38.6   27.4    2.5   0.83   1.31    0.00    0.00   0.00   0.19   0.35   0.35  24.13  36.78
   15 177   101   100  103.4    0.0   0.00   1.58  135.2   38.6   28.1    2.5   0.79   1.29    0.00    0.00   0.00   0.19   0.34   0.34  24.08  36.78
   15 178   102   101  104.1    0.0   0.00   1.55  136.0   38.6   28.7    2.5   0.78   1.28    0.00    0.00   0.00   0.17   0.32   0.32  24.03  36.78
   15 179   103   102  104.7    0.0   0.00   1.51  136.8   38.6   29.4    2.5   0.75   1.27    0.00    0.00   0.00   0.12   0.22   0.22  23.96  36.78
   15 180   104   103  105.3    0.0   0.00   1.48  137.6   38.6   29.9    2.5   0.73   1.26    0.00    0.00   0.00   0.05   0.10   0.10  23.88  36.78
   15 181   105   104  105.8    0.0   0.00   1.44  138.3   38.6   30.5    2.5   0.70   1.25    0.00    0.00   0.00   0.00   0.00   0.00  23.81  36.78
   15 182   106   105  106.3    0.0   0.00   1.41  138.9   38.6   31.0    2.5   0.68   1.25    0.00    0.00   0.00   0.00   0.00   0.00  23.73  36.78
   15 183   107   106  106.8    0.0   0.00   1.37  139.6   38.6   31.5    2.5   0.66   1.24    0.00    0.00   0.00   0.00   0.00   0.00  23.67  36.78
   15 184   108   107  107.2    0.0   0.00   1.35  140.2   38.6   31.9    2.5   0.65   1.24    0.00    0.00   0.00   0.00   0.00   0.00  23.60  36.78
   15 185   109   108  107.6    0.0   0.00   1.32  140.7   38.6   32.3    2.5   0.63   1.23    0.00    0.00   0.00   0.00   0.00   0.00  23.54  36.78
   15 186   110   109  108.0    0.0   0.00   1.30  141.2   38.6   32.6    2.5   0.62   1.23    0.00    0.00   0.00   0.00   0.00   0.00  23.50  36.78
   15 187   111   110  108.3    0.0   0.00   1.28  141.6   38.6   32.9    2.5   0.60   1.23    0.00    0.00   0.00   0.00   0.00   0.00  23.48  36.78
   15 188   112   111  109.6   20.1   2.62   1.14  145.4   34.7   34.3    2.3   0.71   1.35    0.00    0.00   0.00   0.00   0.00   0.00  25.69  20.52
   15 189   113   112  111.0   23.6   2.25   1.13  151.4   32.4   35.6    2.1   0.75   1.58    0.00    0.00   0.00   0.00   0.00   0.00  29.99  19.52
   15 190   114   113  111.0   26.6   2.05   1.11  154.2   30.5   35.2    2.0   0.76   1.72    0.00    0.00   0.00   0.00   0.00   0.00  32.38  18.70
   15 191   115   114  111.0   30.0   1.94   1.07  154.4   28.5   34.8    1.9   0.76   1.72    0.00    0.00   0.00   0.00   0.00   0.00  32.25  17.82
   15 192   116   115  111.0   34.0   1.90   1.02  154.5   26.1   34.2    1.7   0.75   1.72    0.00    0.00   0.00   0.00   0.00   0.00  32.09  16.76
   15 193   117   116  111.0   38.1   1.84   0.98  154.6   23.7   33.5    1.5   0.75   1.72    0.00    0.00   0.00   0.00   0.00   0.00  31.89  15.71
   15 194   118   117  111.0   41.7   1.77   0.95  154.7   21.8   32.7    1.4   0.77   1.71    0.00    0.00   0.00   0.00   0.00   0.00  31.61  14.83
   15 195   119   118  111.0   45.6   1.71   0.92  154.7   19.8   31.7    1.3   0.77   1.71    0.00    0.00   0.00   0.00   0.00   0.00  31.33  13.91
   15 196   120   119  111.0   49.9   1.67   0.88  154.7   17.8   30.4    1.2   0.77   1.71    0.00    0.00   0.00   0.00   0.00   0.00  31.03  12.96
   15 197   121   120  111.0   54.7   1.73   0.81  154.7   15.7   28.7    1.0   0.72   1.71    0.00    0.00   0.00   0.00   0.00   0.00  30.72  11.93
   15 198   122   121  111.0   60.2   1.83   0.73  154.7   13.4   26.7    0.9   0.67   1.71    0.00    0.00   0.00   0.00   0.00   0.00  30.41  10.78
   15 199   123   122  111.4   64.7   1.89   0.67  155.0   11.7   25.1    0.8   0.63   1.71    0.00    0.00   0.00   0.00   0.00   0.00  30.03   9.90
   15 200   124   123  112.8   69.1   1.95   0.63  155.4   10.5   23.9    0.7   0.60   1.65    0.00    0.00   0.00   0.00   0.00   0.00  28.78   9.26
   15 201   125   124  114.9   73.6   2.00   0.59  155.7    9.7   22.9    0.6   0.58   1.55    0.00    0.00   0.00   0.00   0.00   0.00  26.74   8.76
   15 202   126   125  116.6   77.1   2.02   0.57  155.8    9.1   22.0    0.6   0.56   1.48    0.00    0.00   0.00   0.00   0.00   0.00  25.20   8.36
   15 203   127   126  117.8   79.9   2.03   0.54  156.0    8.6   21.3    0.6   0.54   1.43    0.00    0.00   0.00   0.00   0.00   0.00  24.10   8.03
   15 204   128   127  118.6   82.1   2.04   0.52  156.2    8.2   20.6    0.5   0.52   1.39    0.00    0.00   0.00   0.00   0.00   0.00  23.29   7.74
   15 205   129   128  119.3   84.0   2.03   0.51  156.2    7.9   20.0    0.5   0.50   1.37    0.00    0.00   0.00   0.00   0.00   0.00  22.67   7.48
   15 206   130   129  119.9   85.7   2.01   0.49  156.2    7.6   19.4    0.5   0.49   1.35    0.00    0.00   0.00   0.00   0.00   0.00  22.19   7.25
   15 207   131   130  120.3   87.1   1.99   0.48  156.2    7.4   18.9    0.5   0.47   1.34    0.00    0.00   0.00   0.00   0.00   0.00  21.79   7.05
   15 208   132   131  120.7   88.3   1.97   0.46  156.5    7.2   18.4    0.5   0.46   1.35    0.00    0.00   0.00   0.00   0.00   0.00  21.76   6.86
   15 209   133   132  121.2   89.6   1.95   0.45  156.6    7.0   17.9    0.5   0.45   1.35    0.00    0.00   0.00   0.00   0.00   0.00  21.42   6.68
   15 210   134   133  121.6   90.8   1.94   0.44  156.6    6.8   17.5    0.4   0.44   1.34    0.00    0.00   0.00   0.00   0.00   0.00  21.14   6.51
   15 211   135   134  122.0   91.9   1.92   0.43  156.6    6.6   17.1    0.4   0.43   1.33    0.00    0.00   0.00   0.00   0.00   0.00  20.80   6.36
   15 212   136   135  122.4   93.0   1.91   0.42  156.6    6.4   16.7    0.4   0.42   1.33    0.00    0.00   0.00   0.00   0.00   0.00  20.49   6.20
   15 213   137   136  122.7   94.0   1.90   0.41  156.6    6.3   16.3    0.4   0.41   1.32    0.00    0.00   0.00   0.00   0.00   0.00  20.22   6.05
   15 214   138   137  123.0   95.1   1.89   0.40  156.6    6.1   15.9    0.4   0.40   1.32    0.00    0.00   0.00   0.00   0.00   0.00  19.97   5.88
   15 215   139   138  123.2   96.2   1.88   0.39  156.6    5.9   15.4    0.4   0.39   1.32    0.00    0.00   0.00   0.00   0.00   0.00  19.73   5.71
   15 216   140   139  123.5   97.3   1.87   0.38  156.6    5.7   14.9    0.4   0.38   1.31    0.00    0.00   0.00   0.00   0.00   0.00  19.50   5.53
   15 217   141   140  123.8   98.5   1.86   0.36  156.6    5.6   14.4    0.4   0.36   1.31    0.00    0.00   0.00   0.00   0.00   0.00  19.28   5.35
   15 218   142   141  124.1   99.7   1.86   0.35  156.6    5.4   13.9    0.3   0.35   1.31    0.00    0.00   0.00   0.00   0.00   0.00  19.05   5.16
   15 219   143   142  124.3  100.9   1.87   0.34  156.6    5.2   13.3    0.3   0.34   1.31    0.00    0.00   0.00   0.01   0.01   0.01  18.83   4.96
   15 220   144   143  124.4  101.7   1.88   0.33  156.6    5.0   12.9    0.3   0.33   1.32    0.00    0.00   0.00   0.09   0.18   0.18  18.82   4.80
   15 221   145   144  124.4  101.7   1.88   0.33  156.6    5.0   12.9    0.3   0.33   1.33    0.00    0.00   0.00   0.11   0.21   0.21  18.84   4.81
   15 222   146   145  124.4  101.7   1.88   0.33  156.6    5.0   12.9    0.3   0.33   1.35    0.00    0.00   0.00   0.00   0.00   0.00  18.87   4.81
   15 223   147   146  124.4  101.7   1.88   0.33  156.6    5.0   12.9    0.3   0.33   1.36    0.00    0.00   0.00   0.00   0.00   0.00  18.89   4.81
   15 224   148   147  124.4  101.7   1.88   0.33  156.6    5.0   12.9    0.3   0.33   1.36    0.00    0.00   0.00   0.00   0.00   0.00  18.70   4.81
   15 225   149   148  124.4  101.7   1.88   0.33  156.6    5.0   12.9    0.3   0.33   1.36    0.00    0.00   0.00   0.00   0.00   0.00  18.70   4.81
   15 226   150   149  124.4  101.7   1.88   0.33  156.6    5.0   12.9    0.3   0.33   1.36    0.00    0.00   0.00   0.00   0.00   0.00  18.70   4.81
   15 227   151   150  124.4  101.7   1.88   0.33  156.6    5.0   12.9    0.3   0.33   1.36    0.00    0.00   0.00   0.00   0.00   0.00  18.70   4.81
   15 228   152   151  124.4  101.7   1.88   0.33  156.6    5.0   12.9    0.3   0.33   1.36    0.00    0.00   0.00   0.00   0.00   0.00  18.70   4.81
   15 229   153   152  124.4  101.7   1.88   0.33  156.6    5.0   12.9    0.3   0.33   1.36    0.00    0.00   0.00   0.00   0.00   0.00  18.70   4.81
   15 230   154   153  124.4  101.7   1.88   0.33  156.6    5.0   12.9    0.3   0.33   1.36    0.00    0.00   0.00   0.00   0.00   0.00  18.70   4.81
   15 231   155   154  124.4  101.7   1.88   0.33  156.6    5.0   12.9    0.3   0.33   1.36    0.00    0.00   0.00   0.00   0.00   0.00  18.70   4.81
   15 232   156   155  124.4  101.7   1.88   0.33  156.6    5.0   12.9    0.3   0.33   1.36    0.00    0.00   0.00   0.00   0.00   0.00  18.70   4.81
   15 233   157   156  124.4  101.7   1.88   0.33  156.6    5.0   12.9    0.3   0.33   1.36    0.00    0.00   0.00   0.00   0.00   0.00  18.70   4.81
   15 234   158   157  124.4  101.7   1.88   0.33  156.6    5.0   12.9    0.3   0.33   1.36    0.00    0.00   0.00   0.00   0.00   0.00  18.70   4.81
   15 235   159   158  124.4  101.7   1.88   0.33  156.6    5.0   12.9    0.3   0.33   1.36    0.00    0.00   0.00   0.00   0.00   0.00  18.70   4.81
   15 236   160   159  124.4  101.7   1.88   0.33  156.6    5.0   12.9    0.3   0.33   1.36    0.00    0.00   0.00   0.00   0.00   0.00  18.70   4.81
   15 237   161   160  124.4  101.7   1.88   0.33  156.6    5.0   12.9    0.3   0.33   1.36    0.00    0.00   0.00   0.00   0.00   0.00  18.70   4.81

*DSSAT Cropping System Model Ver. 4.8.5.000 -release  NOV 27, 2025 15:48:13

*RUN   2        : 2                         WHAPS048 TUDU1501    2
 MODEL          : WHAPS048 - Wheat
 EXPERIMENT     : TUDU1501 WH
 DATA PATH      :
 TREATMENT  2   : 2                         WHAPS048
  
@YEAR DOY   DAS   DAP   CNAD   GNAD   GN%D   VN%D   NUPC   LNAD   SNAD   LN%D   SN%D   RN%D   SNN0C   SNN1C NFact1 NFact2 NFact3 NFact4  RootN lfshthN
   15 077     1     0    0.0    0.0   0.00   0.00    0.0    0.0    0.0    0.0   0.00   0.00    0.00    0.00   0.00   0.00   0.00   0.00   0.00   0.00
   15 078     2     1    0.0    0.0   0.00   0.00    0.0    0.0    0.0    0.0   0.00   0.00    0.00    0.00   0.00   0.00   0.00   0.00   0.00   0.00
   15 079     3     2    0.0    0.0   0.00   0.00    0.0    0.0    0.0    0.0   0.00   0.00    0.00    0.00   0.00   0.00   0.00   0.00   0.00   0.00
   15 080     4     3    0.0    0.0   0.00   0.00    0.0    0.0    0.0    0.0   0.00   0.00    0.00    0.00   0.00   0.00   0.00   0.00   0.00   0.00
   15 081     5     4    0.0    0.0   0.00   0.00    0.0    0.0    0.0    0.0   0.00   0.00    0.00    0.00   0.00   0.00   0.00   0.00   0.00   0.00
   15 082     6     5    0.0    0.0   0.00   0.00    0.0    0.0    0.0    0.0   0.00   0.00    0.00    0.00   0.00   0.00   0.00   0.00   0.00   0.00
   15 083     7     6    0.0    0.0   0.00   0.00    0.0    0.0    0.0    0.0   0.00   0.00    0.00    0.00   0.00   0.00   0.00   0.00   0.00   0.00
   15 084     8     7    0.0    0.0   0.00   0.00    0.0    0.0    0.0    0.0   0.00   0.00    0.00    0.00   0.00   0.00   0.00   0.00   0.00   0.00
   15 085     9     8    0.0    0.0   0.00   0.00    0.0    0.0    0.0    0.0   0.00   0.00    0.00    0.00   0.00   0.00   0.00   0.00   0.00   0.00
   15 086    10     9    0.0    0.0   0.00   0.00    0.0    0.0    0.0    0.0   0.00   0.00    0.00    0.00   0.00   0.00   0.00   0.00   0.00   0.00
   15 087    11    10    0.0    0.0   0.00   0.00    0.0    0.0    0.0    0.0   0.00   0.00    0.00    0.00   0.00   0.00   0.00   0.00   0.00   0.00
   15 088    12    11    0.0    0.0   0.00   0.00    0.0    0.0    0.0    0.0   0.00   0.00    0.00    0.00   0.00   0.00   0.00   0.00   0.00   0.00
   15 089    13    12    1.0    0.0   0.00   9.14    0.2    0.6    0.0    5.7   6.34   4.42    0.00    0.00   0.00   0.00   0.00   0.00   1.07   0.41
   15 090    14    13    1.1    0.0   0.00   7.75    0.2    0.6    0.0    5.2   6.34   4.32    0.00    0.00   0.00   0.00   0.00   0.00   1.06   0.41
   15 091    15    14    1.2    0.0   0.00   8.17    0.4    0.8    0.0    6.1   6.34   4.19    0.00    0.00   0.00   0.00   0.00   0.00   1.05   0.41
   15 092    16    15    1.3    0.0   0.00   7.85    0.4    0.8    0.0    6.0   6.34   4.13    0.00    0.00   0.00   0.00   0.00   0.00   1.04   0.41
   15 093    17    16    1.3    0.0   0.00   6.94    0.4    0.9    0.0    5.7   6.34   3.98    0.00    0.00   0.00   0.00   0.00   0.00   1.03   0.41
   15 094    18    17    1.4    0.0   0.00   6.98    0.5    0.9    0.0    6.0   6.34   3.92    0.00    0.00   0.00   0.00   0.00   0.00   1.02   0.41
   15 095    19    18    1.4    0.0   0.00   6.83    0.6    1.0    0.0    6.0   6.34   3.77    0.00    0.00   0.00   0.00   0.00   0.00   1.01   0.41
   15 096    20    19    1.5    0.0   0.00   6.63    0.6    1.0    0.0    6.0   6.34   3.65    0.00    0.00   0.00   0.00   0.00   0.00   1.00   0.41
   15 097    21    20    1.5    0.0   0.00   6.13    0.7    1.1    0.0    5.8   6.34   3.45    0.00    0.00   0.00   0.00   0.00   0.00   0.99   0.41
   15 098    22    21    1.6    0.0   0.00   5.14    0.7    1.1    0.0    5.0   6.34   3.25    0.00    0.00   0.00   0.00   0.00   0.00   0.98   0.41
   15 099    23    22    1.9    0.0   0.00   4.36    1.0    1.4    0.0    4.3   6.34   3.01    0.00    0.00   0.00   0.00   0.00   0.00   0.97   0.48
   15 100    24    23    2.6    0.0   0.00   5.04    1.8    2.0    0.0    5.1   6.34   2.81    0.00    0.00   0.22   0.48   0.73   0.73   0.96   0.64
   15 101    25    24    3.2    0.0   0.00   4.84    2.3    2.3    0.0    4.8   6.34   2.61    0.00    0.00   0.00   0.28   0.48   0.48   0.95   0.80
   15 102    26    25    3.9    0.0   0.00   4.94    3.1    2.9    0.0    5.0   6.34   2.39    0.00    0.00   0.00   0.33   0.55   0.55   0.94   0.97
   15 103    27    26    4.7    0.0   0.00   4.94    3.9    3.5    0.0    5.0   6.34   2.18    0.00    0.00   0.00   0.29   0.49   0.49   0.93   1.19
   15 104    28    27    5.2    0.0   0.00   4.56    4.4    3.9    0.0    4.6   6.34   1.94    0.00    0.00   0.00   0.28   0.47   0.47   0.92   1.33
   15 105    29    28    5.5    0.0   0.00   4.09    4.7    4.0    0.0    4.2   6.34   1.73    0.00    0.00   0.06   0.37   0.61   0.61   0.93   1.45
   15 106    30    29    5.8    0.0   0.00   3.97    4.9    4.2    0.0    4.2   6.34   1.62    0.00    0.00   0.25   0.50   0.75   0.75   0.94   1.56
   15 107    31    30    9.1    0.0   0.00   5.87    8.5    6.2    0.0    5.8   6.34   1.98    0.00    0.00   0.29   0.53   0.78   0.78   1.21   2.88
   15 108    32    31    9.6    0.0   0.00   5.85    9.3    6.4    0.0    5.8   6.34   2.04    0.00    0.00   0.00   0.00   0.00   0.00   1.44   3.17
   15 109    33    32   10.4    0.0   0.00   5.81   10.3    6.8    0.0    5.8   6.34   2.02    0.00    0.00   0.00   0.00   0.00   0.00   1.70   3.56
   15 110    34    33   11.7    0.0   0.00   5.73   11.9    7.4    0.0    5.7   6.34   1.96    0.00    0.00   0.00   0.00   0.00   0.00   1.92   4.21
   15 111    35    34   13.5    0.0   0.00   5.65   13.9    8.3    0.0    5.6   6.34   1.94    0.00    0.00   0.00   0.00   0.00   0.00   2.17   5.13
   15 112    36    35   15.6    0.0   0.00   5.59   16.5    9.4    0.0    5.6   6.34   1.93    0.00    0.00   0.00   0.00   0.00   0.00   2.51   6.22
   15 113    37    36   16.6    0.0   0.00   5.61   17.8    9.9    0.0    5.6   6.34   1.98    0.00    0.00   0.00   0.00   0.00   0.00   2.86   6.71
   15 114    38    37   18.2    0.0   0.00   5.52   20.0   10.7    0.0    5.5   6.34   1.94    0.00    0.00   0.00   0.00   0.00   0.00   3.44   7.53
   15 115    39    38   20.1    0.0   0.00   5.45   22.2   11.6    0.0    5.4   6.34   1.92    0.00    0.00   0.00   0.00   0.00   0.00   3.69   8.47
   15 116    40    39   22.3    0.0   0.00   5.23   24.7   12.6    0.0    5.2   6.34   1.87    0.00    0.00   0.00   0.00   0.00   0.00   4.01   9.58
   15 117    41    40   25.9    0.0   0.00   5.31   29.2   14.5    0.0    5.3   6.34   1.92    0.00    0.00   0.00   0.02   0.04   0.04   4.80  11.43
   15 118    42    41   27.7    0.0   0.00   5.32   31.4   15.3    0.0    5.3   6.34   1.94    0.00    0.00   0.00   0.00   0.00   0.00   5.20  12.33
   15 119    43    42   28.6    0.0   0.00   5.27   32.8   15.8    0.0    5.3   6.34   1.94    0.00    0.00   0.00   0.00   0.00   0.00   5.59  12.80
   15 120    44    43   30.8    0.0   0.00   5.22   36.0   16.9    0.0    5.2   6.34   1.93    0.00    0.00   0.00   0.00   0.00   0.00   6.45  13.93
   15 121    45    44   32.3    0.0   0.00   5.17   37.8   17.6    0.0    5.2   6.34   1.92    0.00    0.00   0.00   0.00   0.00   0.00   6.77  14.68
   15 122    46    45   34.1    0.0   0.00   5.04   40.2   18.5    0.0    5.0   6.34   1.87    0.00    0.00   0.00   0.00   0.00   0.00   7.26  15.57
   15 123    47    46   35.2    0.0   0.00   4.79   41.5   19.0    0.0    4.8   6.34   1.81    0.00    0.00   0.00   0.00   0.00   0.00   7.41  16.14
   15 124    48    47   37.1    0.0   0.00   4.52   43.8   20.0    0.0    4.6   6.34   1.71    0.00    0.00   0.00   0.06   0.12   0.12   7.76  17.09
   15 125    49    48   38.9    0.0   0.00   4.31   46.0   20.9    0.0    4.3   6.34   1.66    0.00    0.00   0.00   0.14   0.26   0.26   8.06  18.01
   15 126    50    49   39.7    0.0   0.00   4.16   47.0   21.2    0.0    4.2   6.34   1.55    0.00    0.00   0.00   0.20   0.37   0.37   8.20  18.40
   15 127    51    50   41.0    0.0   0.00   4.05   48.7   21.9    0.0    4.1   6.34   1.47    0.00    0.00   0.00   0.24   0.43   0.43   8.54  19.05
   15 128    52    51   42.5    0.0   0.00   3.95   50.8   22.6    0.0    4.0   6.34   1.40    0.00    0.00   0.00   0.27   0.46   0.46   9.02  19.83
   15 129    53    52   44.0    0.0   0.00   3.88   52.9   23.4    0.0    3.9   6.34   1.37    0.00    0.00   0.00   0.29   0.50   0.50   9.52  20.59
   15 130    54    53   45.4    0.0   0.00   3.81   55.0   24.1    0.0    3.9   6.34   1.35    0.00    0.00   0.00   0.31   0.52   0.52  10.01  21.32
   15 131    55    54   46.7    0.0   0.00   3.74   56.7   24.7    0.0    3.8   6.34   1.32    0.00    0.00   0.00   0.32   0.53   0.53  10.44  21.95
   15 132    56    55   47.7    0.0   0.00   3.60   58.3   25.2    0.0    3.6   6.34   1.25    0.00    0.00   0.00   0.32   0.54   0.54  10.81  22.48
   15 133    57    56   48.7    0.0   0.00   3.47   59.7   25.7    0.0    3.5   6.34   1.20    0.00    0.00   0.04   0.36   0.59   0.59  11.15  22.97
   15 134    58    57   49.6    0.0   0.00   3.40   61.0   26.2    0.0    3.4   6.34   1.17    0.00    0.00   0.10   0.40   0.64   0.64  11.48  23.43
   15 135    59    58   50.5    0.0   0.00   3.35   62.3   26.6    0.0    3.4   6.34   1.16    0.00    0.00   0.13   0.42   0.66   0.66  11.78  23.87
   15 136    60    59   51.3    0.0   0.00   3.30   63.5   27.0    0.0    3.3   6.34   1.14    0.00    0.00   0.14   0.43   0.67   0.67  12.05  24.27
   15 137    61    60   52.0    0.0   0.00   3.23   64.6   27.3    0.0    3.3   6.34   1.12    0.00    0.00   0.15   0.43   0.68   0.68  12.29  24.63
   15 138    62    61   52.6    0.0   0.00   3.15   65.6   27.6    0.0    3.2   6.34   1.09    0.00    0.00   0.17   0.45   0.70   0.70  12.50  24.96
   15 139    63    62   53.3    0.0   0.00   3.03   66.5   27.9    0.0    3.1   0.33   1.09    0.00    0.00   0.20   0.47   0.72   0.72  12.67  25.28
   15 140    64    63   53.9    0.0   0.00   2.97   67.4   28.2    0.1    3.1   0.34   1.09    0.00    0.00   0.27   0.52   0.77   0.77  12.80  25.57
   15 141    65    64   54.5    0.0   0.00   2.87   68.2   28.5    0.1    3.0   0.33   1.09    0.00    0.00   0.30   0.53   0.78   0.78  12.91  25.85
   15 142    66    65   55.1    0.0   0.00   2.74   69.1   28.8    0.2    2.9   0.32   1.07    0.00    0.00   0.35   0.56   0.81   0.81  13.02  26.16
   15 143    67    66   55.8    0.0   0.00   2.66   70.0   29.1    0.3    2.8   0.34   1.06    0.00    0.00   0.42   0.62   0.85   0.85  13.11  26.44
   15 144    68    67   56.3    0.0   0.00   2.61   70.7   29.3    0.3    2.8   0.36   1.06    0.00    0.00   0.46   0.64   0.87   0.87  13.17  26.69
   15 145    69    68   56.8    0.0   0.00   2.54   71.4   29.5    0.4    2.7   0.37   1.05    0.00    0.00   0.48   0.65   0.88   0.88  13.21  26.91
   15 146    70    69   57.3    0.0   0.00   2.49   72.1   29.7    0.5    2.7   0.38   1.04    0.00    0.00   0.52   0.68   0.90   0.90  13.25  27.13
   15 147    71    70   57.8    0.0   0.00   2.44   72.7   29.9    0.6    2.6   0.39   1.03    0.00    0.00   0.54   0.69   0.91   0.91  13.28  27.33
   15 148    72    71   58.3    0.0   0.00   2.36   73.4   30.1    0.7    2.6   0.38   1.02    0.00    0.00   0.56   0.71   0.91   0.91  13.30  27.53
   15 149    73    72   58.8    0.0   0.00   2.30   74.0   30.3    0.8    2.5   0.39   1.01    0.00    0.00   0.60   0.73   0.93   0.93  13.32  27.72
   15 150    74    73   59.3    0.0   0.00   2.27   74.6   30.5    0.9    2.5   0.40   1.00    0.00    0.00   0.62   0.75   0.94   0.94  13.34  27.91
   15 151    75    74   59.7    0.0   0.00   2.22   75.3   30.7    1.0    2.4   0.40   0.99    0.00    0.00   0.63   0.75   0.94   0.94  13.36  28.09
   15 152    76    75   64.2    0.0   0.00   2.33   81.3   32.3    2.1    2.5   0.79   1.08    0.00    0.00   0.64   0.76   0.94   0.94  14.73  29.80
   15 153    77    76   68.2    0.0   0.00   2.38   86.7   33.7    3.2    2.6   1.05   1.15    0.00    0.00   0.49   0.66   0.88   0.88  15.97  31.29
   15 154    78    77   70.9    0.0   0.00   2.36   90.2   34.6    4.0    2.6   1.12   1.18    0.00    0.00   0.38   0.59   0.83   0.83  16.72  32.22
   15 155    79    78   72.3    0.0   0.00   2.29   92.2   35.1    4.5    2.5   1.07   1.17    0.00    0.00   0.35   0.57   0.81   0.81  17.06  32.71
   15 156    80    79   73.1    0.0   0.00   2.22   93.3   35.3    4.9    2.5   0.99   1.15    0.00    0.00   0.36   0.58   0.82   0.82  17.18  32.97
   15 157    81    80   77.5    0.0   0.00   2.27   99.3   36.5    6.7    2.5   1.22   1.22    0.00    0.00   0.39   0.59   0.83   0.83  18.62  34.28
   15 158    82    81   80.2    0.0   0.00   2.25  103.0   37.2    7.9    2.5   1.26   1.25    0.00    0.00   0.26   0.51   0.76   0.76  19.46  35.03
   15 159    83    82   84.4    0.0   0.00   2.31  109.0   38.2   10.0    2.5   1.49   1.34    0.00    0.00   0.24   0.49   0.74   0.74  21.01  36.15
   15 160    84    83   88.6    0.0   0.00   2.37  115.0   39.2   12.3    2.5   1.71   1.43    0.00    0.00   0.11   0.40   0.65   0.65  22.57  37.20
   15 161    85    84   92.6    0.0   0.00   2.40  120.8   39.9   14.6    2.6   1.86   1.50    0.00    0.00   0.00   0.31   0.52   0.52  24.07  38.10
   15 162    86    85   93.8    0.0   0.00   2.33  122.5   40.1   15.4    2.5   1.73   1.49    0.00    0.00   0.00   0.22   0.39   0.39  24.34  38.32
   15 163    87    86   94.7    0.0   0.00   2.22  123.8   40.2   16.2    2.5   1.45   1.47    0.00    0.00   0.00   0.22   0.40   0.40  24.46  38.37
   15 164    88    87   95.6    0.0   0.00   2.14  124.9   40.2   17.1    2.5   1.30   1.45    0.00    0.00   0.00   0.24   0.42   0.42  24.54  38.37
   15 165    89    88   96.4    0.0   0.00   2.06  126.0   40.2   17.9    2.5   1.17   1.43    0.00    0.00   0.00   0.23   0.40   0.40  24.58  38.37
   15 166    90    89   97.2    0.0   0.00   2.03  127.2   40.2   18.7    2.5   1.13   1.42    0.00    0.00   0.00   0.25   0.44   0.44  24.62  38.37
   15 167    91    90   98.3    0.0   0.00   1.97  128.5   40.2   19.8    2.5   1.07   1.41    0.00    0.00   0.00   0.21   0.38   0.38  24.71  38.37
   15 168    92    91   99.4    0.0   0.00   1.91  130.0   40.2   20.8    2.5   1.02   1.40    0.00    0.00   0.00   0.23   0.40   0.40  24.79  38.37
   15 169    93    92  100.3    0.0   0.00   1.89  131.2   40.2   21.8    2.5   1.01   1.39    0.00    0.00   0.00   0.25   0.44   0.44  24.83  38.37
   15 170    94    93  101.3    0.0   0.00   1.85  132.5   40.2   22.8    2.5   0.98   1.38    0.00    0.00   0.00   0.22   0.40   0.40  24.86  38.37
   15 171    95    94  102.2    0.0   0.00   1.82  133.6   40.2   23.7    2.5   0.96   1.37    0.00    0.00   0.00   0.22   0.40   0.40  24.86  38.37
   15 172    96    95  103.0    0.0   0.00   1.78  134.7   40.2   24.5    2.5   0.93   1.36    0.00    0.00   0.00   0.21   0.38   0.38  24.85  38.37
   15 173    97    96  103.8    0.0   0.00   1.75  135.7   40.2   25.3    2.5   0.90   1.35    0.00    0.00   0.00   0.19   0.35   0.35  24.81  38.37
   15 174    98    97  104.6    0.0   0.00   1.71  136.6   40.2   26.0    2.5   0.87   1.33    0.00    0.00   0.00   0.19   0.34   0.34  24.78  38.37
   15 175    99    98  105.3    0.0   0.00   1.66  137.6   40.2   26.8    2.5   0.84   1.31    0.00    0.00   0.00   0.19   0.34   0.34  24.75  38.37
   15 176   100    99  106.1    0.0   0.00   1.62  138.6   40.2   27.6    2.5   0.81   1.29    0.00    0.00   0.00   0.20   0.36   0.36  24.71  38.37
   15 177   101   100  106.8    0.0   0.00   1.58  139.5   40.2   28.3    2.5   0.78   1.27    0.00    0.00   0.00   0.19   0.35   0.35  24.66  38.37
   15 178   102   101  107.5    0.0   0.00   1.55  140.4   40.2   28.9    2.5   0.77   1.26    0.00    0.00   0.00   0.18   0.32   0.32  24.60  38.37
   15 179   103   102  108.1    0.0   0.00   1.51  141.2   40.2   29.5    2.5   0.74   1.25    0.00    0.00   0.00   0.12   0.23   0.23  24.53  38.37
   15 180   104   103  108.7    0.0   0.00   1.48  141.9   40.2   30.1    2.5   0.71   1.25    0.00    0.00   0.00   0.05   0.10   0.10  24.45  38.37
   15 181   105   104  109.2    0.0   0.00   1.44  142.6   40.2   30.7    2.5   0.69   1.24    0.00    0.00   0.00   0.00   0.00   0.00  24.37  38.37
   15 182   106   105  109.7    0.0   0.00   1.41  143.3   40.2   31.2    2.5   0.67   1.23    0.00    0.00   0.00   0.00   0.00   0.00  24.29  38.37
   15 183   107   106  110.3    0.0   0.00   1.37  144.1   40.2   31.7    2.5   0.65   1.23    0.00    0.00   0.00   0.00   0.00   0.00  24.25  38.37
   15 184   108   107  110.7    0.0   0.00   1.35  144.6   40.2   32.2    2.5   0.64   1.22    0.00    0.00   0.00   0.00   0.00   0.00  24.18  38.37
   15 185   109   108  111.1    0.0   0.00   1.33  145.2   40.2   32.5    2.5   0.62   1.22    0.00    0.00   0.00   0.00   0.00   0.00  24.11  38.37
   15 186   110   109  111.4    0.0   0.00   1.30  145.6   40.2   32.9    2.5   0.61   1.22    0.00    0.00   0.00   0.00   0.00   0.00  24.07  38.37
   15 187   111   110  111.7    0.0   0.00   1.28  146.1   40.2   33.2    2.5   0.59   1.22    0.00    0.00   0.00   0.00   0.00   0.00  24.04  38.37
   15 188   112   111  113.6   20.6   2.62   1.15  151.1   36.2   35.0    2.3   0.71   1.37    0.00    0.00   0.00   0.00   0.00   0.00  26.98  21.70
   15 189   113   112  115.0   24.1   2.25   1.14  157.1   33.9   36.4    2.1   0.75   1.59    0.00    0.00   0.00   0.00   0.00   0.00  31.20  20.65
   15 190   114   113  115.0   27.2   2.05   1.12  159.7   31.9   36.1    2.0   0.76   1.72    0.00    0.00   0.00   0.00   0.00   0.00  33.46  19.80
   15 191   115   114  115.0   30.6   1.94   1.08  159.9   29.9   35.6    1.9   0.76   1.72    0.00    0.00   0.00   0.00   0.00   0.00  33.32  18.88
   15 192   116   115  115.0   34.8   1.90   1.03  160.1   27.4   35.0    1.7   0.75   1.72    0.00    0.00   0.00   0.00   0.00   0.00  33.15  17.78
   15 193   117   116  115.0   39.0   1.84   0.99  160.2   25.0   34.3    1.6   0.75   1.72    0.00    0.00   0.00   0.00   0.00   0.00  32.94  16.68
   15 194   118   117  115.0   42.6   1.77   0.96  160.3   23.1   33.5    1.4   0.77   1.71    0.00    0.00   0.00   0.00   0.00   0.00  32.65  15.76
   15 195   119   118  115.0   46.7   1.71   0.93  160.3   21.0   32.5    1.3   0.78   1.71    0.00    0.00   0.00   0.00   0.00   0.00  32.36  14.79
   15 196   120   119  115.0   51.0   1.68   0.89  160.3   19.0   31.2    1.2   0.77   1.71    0.00    0.00   0.00   0.00   0.00   0.00  32.05  13.81
   15 197   121   120  115.0   56.0   1.74   0.82  160.3   16.8   29.5    1.0   0.73   1.71    0.00    0.00   0.00   0.00   0.00   0.00  31.73  12.72
   15 198   122   121  115.0   61.6   1.83   0.74  160.3   14.4   27.6    0.9   0.68   1.71    0.00    0.00   0.00   0.00   0.00   0.00  31.41  11.50
   15 199   123   122  115.0   66.2   1.90   0.68  160.3   12.5   25.9    0.8   0.64   1.71    0.00    0.00   0.00   0.00   0.00   0.00  31.09  10.50
   15 200   124   123  116.2   70.7   1.95   0.63  160.5   11.2   24.6    0.7   0.61   1.67    0.00    0.00   0.00   0.00   0.00   0.00  30.04   9.77
   15 201   125   124  118.2   75.3   2.01   0.60  160.8   10.2   23.5    0.6   0.58   1.58    0.00    0.00   0.00   0.00   0.00   0.00  28.09   9.22
   15 202   126   125  120.1   79.2   2.03   0.57  160.9    9.5   22.6    0.6   0.56   1.49    0.00    0.00   0.00   0.00   0.00   0.00  26.32   8.78
   15 203   127   126  121.4   82.2   2.05   0.54  161.1    9.0   21.8    0.6   0.54   1.44    0.00    0.00   0.00   0.00   0.00   0.00  25.07   8.41
   15 204   128   127  122.4   84.6   2.06   0.52  161.3    8.6   21.1    0.5   0.52   1.40    0.00    0.00   0.00   0.00   0.00   0.00  24.15   8.10
   15 205   129   128  123.2   86.7   2.05   0.51  161.3    8.2   20.5    0.5   0.50   1.37    0.00    0.00   0.00   0.00   0.00   0.00  23.47   7.82
   15 206   130   129  123.8   88.4   2.04   0.49  161.3    7.9   19.9    0.5   0.49   1.35    0.00    0.00   0.00   0.00   0.00   0.00  22.94   7.58
   15 207   131   130  124.2   89.9   2.01   0.48  161.3    7.7   19.3    0.5   0.47   1.34    0.00    0.00   0.00   0.00   0.00   0.00  22.51   7.37
   15 208   132   131  124.6   91.2   2.00   0.46  161.7    7.5   18.8    0.5   0.46   1.36    0.00    0.00   0.00   0.00   0.00   0.00  22.54   7.17
   15 209   133   132  125.1   92.5   1.98   0.45  161.8    7.3   18.4    0.5   0.45   1.35    0.00    0.00   0.00   0.00   0.00   0.00  22.17   6.98
   15 210   134   133  125.6   93.8   1.97   0.44  161.9    7.1   17.9    0.4   0.44   1.34    0.00    0.00   0.00   0.00   0.00   0.00  21.88   6.80
   15 211   135   134  126.0   95.0   1.95   0.43  161.9    6.9   17.5    0.4   0.43   1.33    0.00    0.00   0.00   0.00   0.00   0.00  21.50   6.64
   15 212   136   135  126.4   96.1   1.94   0.42  161.9    6.7   17.1    0.4   0.42   1.33    0.00    0.00   0.00   0.00   0.00   0.00  21.17   6.48
   15 213   137   136  126.7   97.2   1.93   0.41  161.9    6.6   16.7    0.4   0.41   1.32    0.00    0.00   0.00   0.00   0.00   0.00  20.88   6.32
   15 214   138   137  127.0   98.3   1.91   0.40  161.9    6.4   16.2    0.4   0.40   1.32    0.00    0.00   0.00   0.00   0.00   0.00  20.61   6.15
   15 215   139   138  127.3   99.4   1.90   0.39  161.9    6.2   15.8    0.4   0.39   1.32    0.00    0.00   0.00   0.00   0.00   0.00  20.36   5.97
   15 216   140   139  127.6  100.5   1.89   0.38  161.9    6.0   15.3    0.4   0.38   1.31    0.00    0.00   0.00   0.00   0.00   0.00  20.12   5.78
   15 217   141   140  127.9  101.7   1.88   0.36  161.9    5.8   14.8    0.4   0.36   1.31    0.00    0.00   0.00   0.00   0.00   0.00  19.89   5.59
   15 218   142   141  128.1  102.9   1.88   0.35  161.9    5.6   14.2    0.3   0.35   1.31    0.00    0.00   0.00   0.00   0.00   0.00  19.65   5.39
   15 219   143   142  128.4  104.2   1.89   0.34  161.9    5.4   13.7    0.3   0.34   1.31    0.00    0.00   0.00   0.01   0.01   0.01  19.42   5.18
   15 220   144   143  128.4  105.0   1.90   0.33  161.9    5.2   13.2    0.3   0.33   1.32    0.00    0.00   0.00   0.09   0.18   0.18  19.41   5.01
   15 221   145   144  128.4  105.0   1.90   0.33  161.9    5.2   13.2    0.3   0.33   1.33    0.00    0.00   0.00   0.11   0.21   0.21  19.42   5.02
   15 222   146   145  128.4  105.0   1.90   0.33  161.9    5.2   13.2    0.3   0.33   1.35    0.00    0.00   0.00   0.00   0.00   0.00  19.44   5.02
   15 223   147   146  128.4  105.0   1.90   0.33  161.9    5.2   13.2    0.3   0.33   1.36    0.00    0.00   0.00   0.00   0.00   0.00  19.45   5.02
   15 224   148   147  128.4  105.0   1.90   0.33  161.9    5.2   13.2    0.3   0.33   1.36    0.00    0.00   0.00   0.00   0.00   0.00  19.26   5.02
   15 225   149   148  128.4  105.0   1.90   0.33  161.9    5.2   13.2    0.3   0.33   1.36    0.00    0.00   0.00   0.00   0.00   0.00  19.26   5.02
   15 226   150   149  128.4  105.0   1.90   0.33  161.9    5.2   13.2    0.3   0.33   1.36    0.00    0.00   0.00   0.00   0.00   0.00  19.26   5.02
   15 227   151   150  128.4  105.0   1.90   0.33  161.9    5.2   13.2    0.3   0.33   1.36    0.00    0.00   0.00   0.00   0.00   0.00  19.26   5.02
   15 228   152   151  128.4  105.0   1.90   0.33  161.9    5.2   13.2    0.3   0.33   1.36    0.00    0.00   0.00   0.00   0.00   0.00  19.26   5.02
   15 229   153   152  128.4  105.0   1.90   0.33  161.9    5.2   13.2    0.3   0.33   1.36    0.00    0.00   0.00   0.00   0.00   0.00  19.26   5.02
   15 230   154   153  128.4  105.0   1.90   0.33  161.9    5.2   13.2    0.3   0.33   1.36    0.00    0.00   0.00   0.00   0.00   0.00  19.26   5.02
   15 231   155   154  128.4  105.0   1.90   0.33  161.9    5.2   13.2    0.3   0.33   1.36    0.00    0.00   0.00   0.00   0.00   0.00  19.26   5.02
   15 232   156   155  128.4  105.0   1.90   0.33  161.9    5.2   13.2    0.3   0.33   1.36    0.00    0.00   0.00   0.00   0.00   0.00  19.26   5.02
   15 233   157   156  128.4  105.0   1.90   0.33  161.9    5.2   13.2    0.3   0.33   1.36    0.00    0.00   0.00   0.00   0.00   0.00  19.26   5.02
   15 234   158   157  128.4  105.0   1.90   0.33  161.9    5.2   13.2    0.3   0.33   1.36    0.00    0.00   0.00   0.00   0.00   0.00  19.26   5.02
   15 235   159   158  128.4  105.0   1.90   0.33  161.9    5.2   13.2    0.3   0.33   1.36    0.00    0.00   0.00   0.00   0.00   0.00  19.26   5.02
   15 236   160   159  128.4  105.0   1.90   0.33  161.9    5.2   13.2    0.3   0.33   1.36    0.00    0.00   0.00   0.00   0.00   0.00  19.26   5.02
   15 237   161   160  128.4  105.0   1.90   0.33  161.9    5.2   13.2    0.3   0.33   1.36    0.00    0.00   0.00   0.00   0.00   0.00  19.26   5.02

*DSSAT Cropping System Model Ver. 4.8.5.000 -release  NOV 27, 2025 15:48:13

*RUN   3        : 3                         WHAPS048 TUDU1501    3
 MODEL          : WHAPS048 - Wheat
 EXPERIMENT     : TUDU1501 WH
 DATA PATH      :
 TREATMENT  3   : 3                         WHAPS048
  
@YEAR DOY   DAS   DAP   CNAD   GNAD   GN%D   VN%D   NUPC   LNAD   SNAD   LN%D   SN%D   RN%D   SNN0C   SNN1C NFact1 NFact2 NFact3 NFact4  RootN lfshthN
   15 077     1     0    0.0    0.0   0.00   0.00    0.0    0.0    0.0    0.0   0.00   0.00    0.00    0.00   0.00   0.00   0.00   0.00   0.00   0.00
   15 078     2     1    0.0    0.0   0.00   0.00    0.0    0.0    0.0    0.0   0.00   0.00    0.00    0.00   0.00   0.00   0.00   0.00   0.00   0.00
   15 079     3     2    0.0    0.0   0.00   0.00    0.0    0.0    0.0    0.0   0.00   0.00    0.00    0.00   0.00   0.00   0.00   0.00   0.00   0.00
   15 080     4     3    0.0    0.0   0.00   0.00    0.0    0.0    0.0    0.0   0.00   0.00    0.00    0.00   0.00   0.00   0.00   0.00   0.00   0.00
   15 081     5     4    0.0    0.0   0.00   0.00    0.0    0.0    0.0    0.0   0.00   0.00    0.00    0.00   0.00   0.00   0.00   0.00   0.00   0.00
   15 082     6     5    0.0    0.0   0.00   0.00    0.0    0.0    0.0    0.0   0.00   0.00    0.00    0.00   0.00   0.00   0.00   0.00   0.00   0.00
   15 083     7     6    0.0    0.0   0.00   0.00    0.0    0.0    0.0    0.0   0.00   0.00    0.00    0.00   0.00   0.00   0.00   0.00   0.00   0.00
   15 084     8     7    0.0    0.0   0.00   0.00    0.0    0.0    0.0    0.0   0.00   0.00    0.00    0.00   0.00   0.00   0.00   0.00   0.00   0.00
   15 085     9     8    0.0    0.0   0.00   0.00    0.0    0.0    0.0    0.0   0.00   0.00    0.00    0.00   0.00   0.00   0.00   0.00   0.00   0.00
   15 086    10     9    0.0    0.0   0.00   0.00    0.0    0.0    0.0    0.0   0.00   0.00    0.00    0.00   0.00   0.00   0.00   0.00   0.00   0.00
   15 087    11    10    0.0    0.0   0.00   0.00    0.0    0.0    0.0    0.0   0.00   0.00    0.00    0.00   0.00   0.00   0.00   0.00   0.00   0.00
   15 088    12    11    0.0    0.0   0.00   0.00    0.0    0.0    0.0    0.0   0.00   0.00    0.00    0.00   0.00   0.00   0.00   0.00   0.00   0.00
   15 089    13    12    1.0    0.0   0.00   9.14    0.2    0.6    0.0    5.7   6.34   4.42    0.00    0.00   0.00   0.00   0.00   0.00   1.07   0.41
   15 090    14    13    1.1    0.0   0.00   7.75    0.2    0.6    0.0    5.2   6.34   4.32    0.00    0.00   0.00   0.00   0.00   0.00   1.06   0.41
   15 091    15    14    1.2    0.0   0.00   8.17    0.4    0.8    0.0    6.1   6.34   4.19    0.00    0.00   0.00   0.00   0.00   0.00   1.05   0.41
   15 092    16    15    1.3    0.0   0.00   7.85    0.4    0.8    0.0    6.0   6.34   4.13    0.00    0.00   0.00   0.00   0.00   0.00   1.04   0.41
   15 093    17    16    1.3    0.0   0.00   6.94    0.4    0.9    0.0    5.7   6.34   3.98    0.00    0.00   0.00   0.00   0.00   0.00   1.03   0.41
   15 094    18    17    1.4    0.0   0.00   6.98    0.5    0.9    0.0    6.0   6.34   3.92    0.00    0.00   0.00   0.00   0.00   0.00   1.02   0.41
   15 095    19    18    1.4    0.0   0.00   6.83    0.6    1.0    0.0    6.0   6.34   3.77    0.00    0.00   0.00   0.00   0.00   0.00   1.01   0.41
   15 096    20    19    1.5    0.0   0.00   6.63    0.6    1.0    0.0    6.0   6.34   3.65    0.00    0.00   0.00   0.00   0.00   0.00   1.00   0.41
   15 097    21    20    1.5    0.0   0.00   6.13    0.7    1.1    0.0    5.8   6.34   3.45    0.00    0.00   0.00   0.00   0.00   0.00   0.99   0.41
   15 098    22    21    1.6    0.0   0.00   5.14    0.7    1.1    0.0    5.0   6.34   3.25    0.00    0.00   0.00   0.00   0.00   0.00   0.98   0.41
   15 099    23    22    1.9    0.0   0.00   4.36    1.0    1.4    0.0    4.3   6.34   3.01    0.00    0.00   0.00   0.00   0.00   0.00   0.97   0.48
   15 100    24    23    2.6    0.0   0.00   5.04    1.8    2.0    0.0    5.1   6.34   2.81    0.00    0.00   0.22   0.48   0.73   0.73   0.96   0.64
   15 101    25    24    3.2    0.0   0.00   4.84    2.3    2.3    0.0    4.8   6.34   2.61    0.00    0.00   0.00   0.28   0.48   0.48   0.95   0.80
   15 102    26    25    3.6    0.0   0.00   4.54    2.8    2.7    0.0    4.5   6.34   2.39    0.00    0.00   0.00   0.33   0.55   0.55   0.94   0.90
   15 103    27    26    3.9    0.0   0.00   4.24    3.1    2.9    0.0    4.3   6.34   2.19    0.00    0.00   0.10   0.40   0.64   0.64   0.93   0.99
   15 104    28    27    4.2    0.0   0.00   3.96    3.4    3.1    0.0    4.0   6.34   1.99    0.00    0.00   0.22   0.48   0.73   0.73   0.92   1.07
   15 105    29    28    4.5    0.0   0.00   3.66    3.7    3.3    0.0    3.8   6.34   1.82    0.00    0.00   0.33   0.55   0.80   0.80   0.92   1.17
   15 106    30    29    4.8    0.0   0.00   3.54    3.9    3.5    0.0    3.6   6.34   1.73    0.00    0.00   0.44   0.63   0.86   0.86   0.92   1.26
   15 107    31    30    5.1    0.0   0.00   3.64    4.2    3.7    0.0    3.7   6.34   1.70    0.00    0.00   0.48   0.66   0.88   0.88   0.93   1.38
   15 108    32    31    5.6    0.0   0.00   3.85    4.8    4.0    0.0    4.0   6.34   1.65    0.00    0.00   0.44   0.62   0.86   0.86   0.97   1.58
   15 109    33    32    6.2    0.0   0.00   4.00    5.5    4.4    0.0    4.1   6.34   1.55    0.00    0.00   0.33   0.56   0.80   0.80   1.04   1.80
   15 110    34    33    6.7    0.0   0.00   3.96    6.1    4.7    0.0    4.1   6.34   1.43    0.00    0.00   0.26   0.51   0.76   0.76   1.10   2.01
   15 111    35    34    7.2    0.0   0.00   3.84    6.6    5.0    0.0    4.0   6.34   1.33    0.00    0.00   0.26   0.51   0.76   0.76   1.17   2.23
   15 112    36    35    7.7    0.0   0.00   3.71    7.2    5.2    0.0    3.9   6.34   1.24    0.00    0.00   0.31   0.54   0.79   0.79   1.25   2.44
   15 113    37    36    8.1    0.0   0.00   3.75    7.7    5.5    0.0    4.0   6.34   1.22    0.00    0.00   0.36   0.57   0.82   0.82   1.33   2.65
   15 114    38    37    8.6    0.0   0.00   3.68    8.3    5.7    0.0    3.9   6.34   1.14    0.00    0.00   0.33   0.55   0.80   0.80   1.43   2.86
   15 115    39    38    9.1    0.0   0.00   3.62    8.9    6.0    0.0    3.9   6.34   1.16    0.00    0.00   0.35   0.57   0.81   0.81   1.52   3.10
   15 116    40    39    9.6    0.0   0.00   3.47    9.5    6.2    0.0    3.7   6.34   1.14    0.00    0.00   0.36   0.57   0.82   0.82   1.61   3.34
   15 117    41    40   10.2    0.0   0.00   3.38   10.2    6.5    0.0    3.6   6.34   1.12    0.00    0.00   0.42   0.61   0.85   0.85   1.72   3.63
   15 118    42    41   10.7    0.0   0.00   3.42   10.9    6.8    0.0    3.7   6.34   1.15    0.00    0.00   0.46   0.64   0.87   0.87   1.81   3.91
   15 119    43    42   11.3    0.0   0.00   3.47   11.6    7.1    0.0    3.7   6.34   1.15    0.00    0.00   0.43   0.62   0.85   0.85   1.93   4.19
   15 120    44    43   11.9    0.0   0.00   3.44   12.4    7.4    0.0    3.7   6.34   1.12    0.00    0.00   0.39   0.59   0.83   0.83   2.06   4.48
   15 121    45    44   12.2    0.0   0.00   3.39   12.8    7.6    0.0    3.6   6.34   1.12    0.00    0.00   0.39   0.59   0.84   0.84   2.12   4.65
   15 122    46    45   12.5    0.0   0.00   3.29   13.2    7.7    0.0    3.5   6.34   1.08    0.00    0.00   0.41   0.60   0.84   0.84   2.17   4.80
   15 123    47    46   12.8    0.0   0.00   3.19   13.5    7.8    0.0    3.4   6.34   1.06    0.00    0.00   0.44   0.63   0.86   0.86   2.21   4.93
   15 124    48    47   13.2    0.0   0.00   3.06   13.9    8.0    0.0    3.3   6.34   1.04    0.00    0.00   0.48   0.66   0.88   0.88   2.27   5.12
   15 125    49    48   13.6    0.0   0.00   2.99   14.4    8.2    0.0    3.2   6.34   1.03    0.00    0.00   0.54   0.69   0.90   0.90   2.33   5.33
   15 126    50    49   13.8    0.0   0.00   2.92   14.7    8.3    0.0    3.1   6.34   0.99    0.00    0.00   0.56   0.71   0.91   0.91   2.36   5.44
   15 127    51    50   14.1    0.0   0.00   2.87   15.1    8.5    0.0    3.1   6.34   0.94    0.00    0.00   0.59   0.73   0.93   0.93   2.43   5.61
   15 128    52    51   14.6    0.0   0.00   2.82   15.7    8.7    0.0    3.0   6.34   0.91    0.00    0.00   0.61   0.74   0.93   0.93   2.53   5.82
   15 129    53    52   15.0    0.0   0.00   2.79   16.3    8.9    0.0    3.0   6.34   0.91    0.00    0.00   0.62   0.75   0.94   0.94   2.63   6.05
   15 130    54    53   15.5    0.0   0.00   2.77   16.9    9.2    0.0    3.0   6.34   0.90    0.00    0.00   0.62   0.75   0.94   0.94   2.75   6.29
   15 131    55    54   16.0    0.0   0.00   2.76   17.5    9.4    0.0    3.0   6.34   0.89    0.00    0.00   0.62   0.75   0.94   0.94   2.88   6.54
   15 132    56    55   16.5    0.0   0.00   2.71   18.2    9.7    0.0    2.9   6.34   0.87    0.00    0.00   0.61   0.74   0.93   0.93   3.01   6.80
   15 133    57    56   17.0    0.0   0.00   2.66   18.9    9.9    0.0    2.8   6.34   0.87    0.00    0.00   0.63   0.75   0.94   0.94   3.15   7.07
   15 134    58    57   17.5    0.0   0.00   2.65   19.6   10.2    0.0    2.8   6.34   0.86    0.00    0.00   0.64   0.76   0.94   0.94   3.30   7.34
   15 135    59    58   18.1    0.0   0.00   2.66   20.4   10.4    0.0    2.8   6.34   0.89    0.00    0.00   0.64   0.76   0.94   0.94   3.45   7.63
   15 136    60    59   18.6    0.0   0.00   2.65   21.1   10.7    0.0    2.8   6.34   0.89    0.00    0.00   0.61   0.74   0.93   0.93   3.60   7.90
   15 137    61    60   19.2    0.0   0.00   2.63   21.8   11.0    0.0    2.8   6.34   0.88    0.00    0.00   0.60   0.74   0.93   0.93   3.76   8.17
   15 138    62    61   19.7    0.0   0.00   2.60   22.5   11.2    0.0    2.8   6.34   0.87    0.00    0.00   0.60   0.73   0.93   0.93   3.93   8.45
   15 139    63    62   20.2    0.0   0.00   2.58   23.3   11.5    0.0    2.7   0.92   0.89    0.00    0.00   0.60   0.74   0.93   0.93   4.08   8.72
   15 140    64    63   20.7    0.0   0.00   2.58   23.9   11.7    0.1    2.7   0.79   0.91    0.00    0.00   0.60   0.74   0.93   0.93   4.20   8.96
   15 141    65    64   21.2    0.0   0.00   2.55   24.5   11.9    0.1    2.7   0.67   0.92    0.00    0.00   0.59   0.72   0.92   0.92   4.31   9.18
   15 142    66    65   21.6    0.0   0.00   2.48   25.1   12.1    0.1    2.7   0.58   0.92    0.00    0.00   0.60   0.73   0.93   0.93   4.41   9.40
   15 143    67    66   22.1    0.0   0.00   2.44   25.7   12.3    0.2    2.6   0.58   0.93    0.00    0.00   0.63   0.76   0.94   0.94   4.50   9.61
   15 144    68    67   22.5    0.0   0.00   2.41   26.3   12.5    0.2    2.6   0.61   0.93    0.00    0.00   0.64   0.76   0.94   0.94   4.59   9.81
   15 145    69    68   23.0    0.0   0.00   2.37   26.9   12.7    0.3    2.6   0.61   0.94    0.00    0.00   0.64   0.76   0.94   0.94   4.68  10.01
   15 146    70    69   23.4    0.0   0.00   2.35   27.5   12.9    0.3    2.6   0.64   0.94    0.00    0.00   0.66   0.77   0.95   0.95   4.77  10.22
   15 147    71    70   23.9    0.0   0.00   2.31   28.0   13.1    0.4    2.5   0.66   0.95    0.00    0.00   0.66   0.77   0.95   0.95   4.86  10.41
   15 148    72    71   24.3    0.0   0.00   2.25   28.6   13.2    0.5    2.5   0.64   0.94    0.00    0.00   0.67   0.78   0.95   0.95   4.94  10.61
   15 149    73    72   24.7    0.0   0.00   2.21   29.2   13.4    0.5    2.5   0.65   0.94    0.00    0.00   0.70   0.80   0.96   0.96   5.02  10.79
   15 150    74    73   25.2    0.0   0.00   2.19   29.8   13.6    0.6    2.4   0.67   0.94    0.00    0.00   0.70   0.80   0.96   0.96   5.11  10.98
   15 151    75    74   25.6    0.0   0.00   2.15   30.3   13.7    0.7    2.4   0.67   0.94    0.00    0.00   0.70   0.80   0.96   0.96   5.19  11.16
   15 152    76    75   26.0    0.0   0.00   2.12   30.9   13.9    0.8    2.4   0.68   0.94    0.00    0.00   0.70   0.80   0.96   0.96   5.27  11.33
   15 153    77    76   26.5    0.0   0.00   2.09   31.5   14.1    0.9    2.4   0.69   0.93    0.00    0.00   0.70   0.80   0.96   0.96   5.35  11.50
   15 154    78    77   26.9    0.0   0.00   2.05   32.0   14.2    1.1    2.3   0.69   0.93    0.00    0.00   0.69   0.80   0.96   0.96   5.44  11.66
   15 155    79    78   27.4    0.0   0.00   2.02   32.6   14.3    1.2    2.3   0.69   0.93    0.00    0.00   0.69   0.80   0.96   0.96   5.53  11.82
   15 156    80    79   27.8    0.0   0.00   1.99   33.3   14.5    1.3    2.3   0.70   0.93    0.00    0.00   0.69   0.79   0.96   0.96   5.63  11.98
   15 157    81    80   28.3    0.0   0.00   1.96   33.9   14.6    1.5    2.3   0.72   0.93    0.00    0.00   0.68   0.79   0.95   0.95   5.75  12.15
   15 158    82    81   28.8    0.0   0.00   1.94   34.6   14.8    1.7    2.3   0.73   0.94    0.00    0.00   0.66   0.77   0.95   0.95   5.88  12.31
   15 159    83    82   29.4    0.0   0.00   1.94   35.4   14.9    1.9    2.3   0.78   0.96    0.00    0.00   0.65   0.77   0.95   0.95   6.05  12.50
   15 160    84    83   30.0    0.0   0.00   1.96   36.3   15.1    2.2    2.3   0.85   0.99    0.00    0.00   0.61   0.74   0.93   0.93   6.24  12.70
   15 161    85    84   30.6    0.0   0.00   1.95   37.2   15.2    2.5    2.3   0.89   1.01    0.00    0.00   0.55   0.70   0.91   0.91   6.45  12.89
   15 162    86    85   31.2    0.0   0.00   1.93   38.1   15.4    2.8    2.2   0.89   1.02    0.00    0.00   0.50   0.67   0.89   0.89   6.65  13.07
   15 163    87    86   31.8    0.0   0.00   1.87   38.9   15.5    3.2    2.3   0.82   1.02    0.00    0.00   0.47   0.65   0.88   0.88   6.83  13.19
   15 164    88    87   32.4    0.0   0.00   1.84   39.8   15.5    3.6    2.3   0.79   1.04    0.00    0.00   0.45   0.64   0.87   0.87   7.03  13.29
   15 165    89    88   33.0    0.0   0.00   1.79   40.6   15.5    4.1    2.3   0.76   1.04    0.00    0.00   0.41   0.61   0.85   0.85   7.22  13.35
   15 166    90    89   33.5    0.0   0.00   1.77   41.4   15.5    4.5    2.3   0.79   1.06    0.00    0.00   0.42   0.61   0.85   0.85   7.42  13.39
   15 167    91    90   34.1    0.0   0.00   1.74   42.3   15.5    5.1    2.3   0.79   1.08    0.00    0.00   0.35   0.57   0.81   0.81   7.65  13.40
   15 168    92    91   34.7    0.0   0.00   1.70   43.3   15.5    5.8    2.3   0.79   1.09    0.00    0.00   0.35   0.57   0.81   0.81   7.90  13.40
   15 169    93    92   35.3    0.0   0.00   1.69   44.1   15.5    6.4    2.3   0.82   1.11    0.00    0.00   0.36   0.57   0.82   0.82   8.10  13.40
   15 170    94    93   35.9    0.0   0.00   1.66   45.0   15.5    7.0    2.3   0.82   1.12    0.00    0.00   0.30   0.53   0.78   0.78   8.30  13.40
   15 171    95    94   36.6    0.0   0.00   1.64   46.0   15.5    7.6    2.3   0.83   1.13    0.00    0.00   0.29   0.52   0.77   0.77   8.50  13.40
   15 172    96    95   37.2    0.0   0.00   1.62   46.9   15.5    8.3    2.3   0.84   1.14    0.00    0.00   0.25   0.50   0.75   0.75   8.68  13.40
   15 173    97    96   37.8    0.0   0.00   1.59   47.6   15.5    8.8    2.3   0.83   1.14    0.00    0.00   0.21   0.47   0.72   0.72   8.82  13.40
   15 174    98    97   38.3    0.0   0.00   1.55   48.4   15.5    9.4    2.3   0.81   1.14    0.00    0.00   0.20   0.47   0.72   0.72   8.96  13.40
   15 175    99    98   38.9    0.0   0.00   1.52   49.3   15.5   10.0    2.3   0.79   1.13    0.00    0.00   0.20   0.47   0.72   0.72   9.11  13.40
   15 176   100    99   39.6    0.0   0.00   1.48   50.2   15.5   10.6    2.3   0.78   1.13    0.00    0.00   0.21   0.47   0.72   0.72   9.26  13.40
   15 177   101   100   40.2    0.0   0.00   1.45   51.0   15.5   11.2    2.3   0.77   1.12    0.00    0.00   0.19   0.46   0.71   0.71   9.40  13.40
   15 178   102   101   40.8    0.0   0.00   1.43   51.8   15.5   11.8    2.3   0.77   1.13    0.00    0.00   0.17   0.44   0.69   0.69   9.54  13.40
   15 179   103   102   41.4    0.0   0.00   1.39   52.7   15.5   12.4    2.3   0.75   1.13    0.00    0.00   0.07   0.38   0.62   0.62   9.67  13.40
   15 180   104   103   42.0    0.0   0.00   1.35   53.5   15.5   13.0    2.3   0.73   1.13    0.00    0.00   0.00   0.33   0.55   0.55   9.80  13.40
   15 181   105   104   42.5    0.0   0.00   1.32   54.3   15.5   13.6    2.3   0.71   1.13    0.00    0.00   0.00   0.20   0.35   0.35   9.93  13.40
   15 182   106   105   43.1    0.0   0.00   1.29   55.1   15.5   14.1    2.3   0.69   1.14    0.00    0.00   0.00   0.02   0.04   0.04  10.05  13.40
   15 183   107   106   43.6    0.0   0.00   1.25   55.8   15.5   14.6    2.3   0.68   1.14    0.00    0.00   0.00   0.00   0.00   0.00  10.17  13.40
   15 184   108   107   44.1    0.0   0.00   1.23   56.5   15.5   15.1    2.3   0.67   1.16    0.00    0.00   0.00   0.00   0.00   0.00  10.30  13.40
   15 185   109   108   44.5    0.0   0.00   1.21   57.1   15.5   15.6    2.3   0.66   1.17    0.00    0.00   0.00   0.00   0.00   0.00  10.44  13.40
   15 186   110   109   44.9    0.0   0.00   1.19   57.8   15.5   16.0    2.3   0.65   1.19    0.00    0.00   0.00   0.00   0.00   0.00  10.60  13.40
   15 187   111   110   45.3    0.0   0.00   1.17   58.4   15.5   16.3    2.3   0.64   1.20    0.00    0.00   0.00   0.00   0.00   0.00  10.79  13.40
   15 188   112   111   45.8    9.5   2.62   1.01   60.5   13.4   16.8    2.0   0.73   1.37    0.00    0.00   0.00   0.00   0.00   0.00  12.25   6.17
   15 189   113   112   46.4   11.1   2.25   0.99   64.4   12.2   17.2    1.8   0.77   1.72    0.00    0.00   0.00   0.00   0.00   0.00  15.38   5.91
   15 190   114   113   46.4   12.5   2.05   0.96   64.5   11.2   16.9    1.6   0.77   1.72    0.00    0.00   0.00   0.00   0.00   0.00  15.34   5.69
   15 191   115   114   46.4   14.1   1.94   0.92   64.6   10.2   16.6    1.5   0.75   1.72    0.00    0.00   0.00   0.00   0.00   0.00  15.35   5.47
   15 192   116   115   46.4   16.0   1.90   0.86   64.8    9.0   16.1    1.3   0.73   1.72    0.00    0.00   0.00   0.00   0.00   0.00  15.34   5.18
   15 193   117   116   46.4   17.9   1.84   0.82   64.9    7.9   15.7    1.2   0.72   1.72    0.00    0.00   0.00   0.00   0.00   0.00  15.31   4.89
   15 194   118   117   46.4   19.6   1.77   0.79   65.0    7.0   15.1    1.0   0.72   1.71    0.00    0.00   0.00   0.00   0.00   0.00  15.20   4.65
   15 195   119   118   46.4   21.4   1.71   0.75   65.0    6.1   14.4    0.9   0.71   1.71    0.00    0.00   0.00   0.00   0.00   0.00  15.13   4.40
   15 196   120   119   46.7   23.4   1.67   0.71   65.4    5.4   13.6    0.8   0.69   1.71    0.00    0.00   0.00   0.00   0.00   0.00  15.05   4.18
   15 197   121   120   47.6   25.7   1.68   0.67   66.2    4.9   12.9    0.7   0.67   1.69    0.00    0.00   0.00   0.00   0.00   0.00  14.75   4.01
   15 198   122   121   48.8   28.1   1.70   0.65   66.8    4.6   12.3    0.7   0.66   1.62    0.00    0.00   0.00   0.00   0.00   0.00  14.05   3.86
   15 199   123   122   49.8   30.2   1.68   0.63   67.5    4.3   11.6    0.6   0.65   1.57    0.00    0.00   0.00   0.00   0.00   0.00  13.52   3.74
   15 200   124   123   50.7   32.0   1.67   0.61   68.1    4.1   11.0    0.6   0.63   1.54    0.00    0.00   0.00   0.00   0.00   0.00  13.13   3.63
   15 201   125   124   51.5   33.6   1.70   0.58   68.7    3.9   10.4    0.6   0.59   1.52    0.00    0.00   0.00   0.00   0.00   0.00  12.81   3.52
   15 202   126   125   52.2   35.1   1.70   0.56   69.3    3.8    9.9    0.6   0.57   1.50    0.00    0.00   0.00   0.00   0.00   0.00  12.54   3.42
   15 203   127   126   52.9   36.4   1.71   0.54   69.8    3.7    9.5    0.5   0.54   1.49    0.00    0.00   0.00   0.00   0.00   0.00  12.29   3.32
   15 204   128   127   53.5   37.5   1.72   0.52   70.3    3.6    9.2    0.5   0.52   1.47    0.00    0.00   0.00   0.00   0.00   0.00  12.06   3.23
   15 205   129   128   54.1   38.6   1.72   0.50   70.8    3.4    8.9    0.5   0.51   1.47    0.00    0.00   0.00   0.00   0.00   0.00  11.86   3.14
   15 206   130   129   54.6   39.6   1.71   0.49   71.3    3.3    8.6    0.5   0.49   1.46    0.00    0.00   0.00   0.00   0.00   0.00  11.68   3.05
   15 207   131   130   55.1   40.5   1.70   0.48   71.7    3.3    8.4    0.5   0.48   1.45    0.00    0.00   0.00   0.00   0.00   0.00  11.50   2.98
   15 208   132   131   55.6   41.4   1.69   0.46   72.4    3.2    8.1    0.5   0.46   1.47    0.00    0.00   0.00   0.00   0.00   0.00  11.54   2.90
   15 209   133   132   56.2   42.3   1.68   0.45   73.2    3.1    7.9    0.5   0.45   1.50    0.00    0.00   0.00   0.00   0.00   0.00  11.67   2.83
   15 210   134   133   56.8   43.3   1.69   0.44   74.1    3.0    7.7    0.4   0.44   1.54    0.00    0.00   0.00   0.00   0.00   0.00  11.89   2.76
   15 211   135   134   57.5   44.3   1.70   0.43   74.8    2.9    7.5    0.4   0.43   1.53    0.00    0.00   0.00   0.00   0.00   0.00  11.68   2.69
   15 212   136   135   58.2   45.4   1.69   0.42   75.2    2.9    7.4    0.4   0.42   1.50    0.00    0.00   0.00   0.00   0.00   0.00  11.32   2.63
   15 213   137   136   58.8   46.3   1.71   0.41   75.6    2.8    7.2    0.4   0.41   1.47    0.00    0.00   0.00   0.00   0.00   0.00  10.97   2.57
   15 214   138   137   59.4   47.2   1.71   0.40   76.0    2.7    7.0    0.4   0.40   1.45    0.00    0.00   0.00   0.00   0.00   0.00  10.69   2.50
   15 215   139   138   59.9   48.0   1.71   0.39   76.3    2.6    6.8    0.4   0.39   1.43    0.00    0.00   0.00   0.00   0.00   0.00  10.46   2.43
   15 216   140   139   60.3   48.8   1.72   0.38   76.6    2.6    6.6    0.4   0.38   1.42    0.00    0.00   0.00   0.00   0.00   0.00  10.26   2.35
   15 217   141   140   60.7   49.6   1.72   0.36   77.0    2.5    6.4    0.4   0.36   1.40    0.00    0.00   0.00   0.00   0.00   0.00  10.08   2.28
   15 218   142   141   61.1   50.3   1.73   0.35   77.3    2.4    6.1    0.4   0.35   1.39    0.00    0.00   0.00   0.00   0.00   0.00   9.91   2.20
   15 219   143   142   61.4   51.1   1.75   0.34   77.5    2.3    5.9    0.3   0.34   1.39    0.00    0.00   0.00   0.00   0.00   0.00   9.76   2.12
   15 220   144   143   61.5   51.5   1.75   0.33   77.7    2.2    5.7    0.3   0.33   1.42    0.00    0.00   0.00   0.06   0.11   0.11   9.91   2.05
   15 221   145   144   61.5   51.6   1.76   0.33   77.8    2.2    5.7    0.3   0.33   1.46    0.00    0.00   0.00   0.09   0.17   0.17  10.07   2.04
   15 222   146   145   61.5   51.6   1.76   0.33   77.9    2.2    5.7    0.3   0.32   1.50    0.00    0.00   0.00   0.00   0.00   0.00  10.26   2.04
   15 223   147   146   61.5   51.6   1.76   0.32   78.0    2.2    5.7    0.3   0.32   1.55    0.00    0.00   0.00   0.00   0.00   0.00  10.44   2.04
   15 224   148   147   61.5   51.6   1.76   0.32   78.0    2.2    5.7    0.3   0.32   1.55    0.00    0.00   0.00   0.00   0.00   0.00  10.34   2.04
   15 225   149   148   61.5   51.6   1.76   0.32   78.0    2.2    5.7    0.3   0.32   1.55    0.00    0.00   0.00   0.00   0.00   0.00  10.34   2.04
   15 226   150   149   61.5   51.6   1.76   0.32   78.0    2.2    5.7    0.3   0.32   1.55    0.00    0.00   0.00   0.00   0.00   0.00  10.34   2.04
   15 227   151   150   61.5   51.6   1.76   0.32   78.0    2.2    5.7    0.3   0.32   1.55    0.00    0.00   0.00   0.00   0.00   0.00  10.34   2.04
   15 228   152   151   61.5   51.6   1.76   0.32   78.0    2.2    5.7    0.3   0.32   1.55    0.00    0.00   0.00   0.00   0.00   0.00  10.34   2.04
   15 229   153   152   61.5   51.6   1.76   0.32   78.0    2.2    5.7    0.3   0.32   1.55    0.00    0.00   0.00   0.00   0.00   0.00  10.34   2.04
   15 230   154   153   61.5   51.6   1.76   0.32   78.0    2.2    5.7    0.3   0.32   1.55    0.00    0.00   0.00   0.00   0.00   0.00  10.34   2.04
   15 231   155   154   61.5   51.6   1.76   0.32   78.0    2.2    5.7    0.3   0.32   1.55    0.00    0.00   0.00   0.00   0.00   0.00  10.34   2.04
   15 232   156   155   61.5   51.6   1.76   0.32   78.0    2.2    5.7    0.3   0.32   1.55    0.00    0.00   0.00   0.00   0.00   0.00  10.34   2.04
   15 233   157   156   61.5   51.6   1.76   0.32   78.0    2.2    5.7    0.3   0.32   1.55    0.00    0.00   0.00   0.00   0.00   0.00  10.34   2.04
   15 234   158   157   61.5   51.6   1.76   0.32   78.0    2.2    5.7    0.3   0.32   1.55    0.00    0.00   0.00   0.00   0.00   0.00  10.34   2.04
   15 235   159   158   61.5   51.6   1.76   0.32   78.0    2.2    5.7    0.3   0.32   1.55    0.00    0.00   0.00   0.00   0.00   0.00  10.34   2.04
   15 236   160   159   61.5   51.6   1.76   0.32   78.0    2.2    5.7    0.3   0.32   1.55    0.00    0.00   0.00   0.00   0.00   0.00  10.34   2.04
   15 237   161   160   61.5   51.6   1.76   0.32   78.0    2.2    5.7    0.3   0.32   1.55    0.00    0.00   0.00   0.00   0.00   0.00  10.34   2.04

*DSSAT Cropping System Model Ver. 4.8.5.000 -release  NOV 27, 2025 15:48:13

*RUN   4        : 4                         WHAPS048 TUDU1501    4
 MODEL          : WHAPS048 - Wheat
 EXPERIMENT     : TUDU1501 WH
 DATA PATH      :
 TREATMENT  4   : 4                         WHAPS048
  
@YEAR DOY   DAS   DAP   CNAD   GNAD   GN%D   VN%D   NUPC   LNAD   SNAD   LN%D   SN%D   RN%D   SNN0C   SNN1C NFact1 NFact2 NFact3 NFact4  RootN lfshthN
   15 077     1     0    0.0    0.0   0.00   0.00    0.0    0.0    0.0    0.0   0.00   0.00    0.00    0.00   0.00   0.00   0.00   0.00   0.00   0.00
   15 078     2     1    0.0    0.0   0.00   0.00    0.0    0.0    0.0    0.0   0.00   0.00    0.00    0.00   0.00   0.00   0.00   0.00   0.00   0.00
   15 079     3     2    0.0    0.0   0.00   0.00    0.0    0.0    0.0    0.0   0.00   0.00    0.00    0.00   0.00   0.00   0.00   0.00   0.00   0.00
   15 080     4     3    0.0    0.0   0.00   0.00    0.0    0.0    0.0    0.0   0.00   0.00    0.00    0.00   0.00   0.00   0.00   0.00   0.00   0.00
   15 081     5     4    0.0    0.0   0.00   0.00    0.0    0.0    0.0    0.0   0.00   0.00    0.00    0.00   0.00   0.00   0.00   0.00   0.00   0.00
   15 082     6     5    0.0    0.0   0.00   0.00    0.0    0.0    0.0    0.0   0.00   0.00    0.00    0.00   0.00   0.00   0.00   0.00   0.00   0.00
   15 083     7     6    0.0    0.0   0.00   0.00    0.0    0.0    0.0    0.0   0.00   0.00    0.00    0.00   0.00   0.00   0.00   0.00   0.00   0.00
   15 084     8     7    0.0    0.0   0.00   0.00    0.0    0.0    0.0    0.0   0.00   0.00    0.00    0.00   0.00   0.00   0.00   0.00   0.00   0.00
   15 085     9     8    0.0    0.0   0.00   0.00    0.0    0.0    0.0    0.0   0.00   0.00    0.00    0.00   0.00   0.00   0.00   0.00   0.00   0.00
   15 086    10     9    0.0    0.0   0.00   0.00    0.0    0.0    0.0    0.0   0.00   0.00    0.00    0.00   0.00   0.00   0.00   0.00   0.00   0.00
   15 087    11    10    0.0    0.0   0.00   0.00    0.0    0.0    0.0    0.0   0.00   0.00    0.00    0.00   0.00   0.00   0.00   0.00   0.00   0.00
   15 088    12    11    0.0    0.0   0.00   0.00    0.0    0.0    0.0    0.0   0.00   0.00    0.00    0.00   0.00   0.00   0.00   0.00   0.00   0.00
   15 089    13    12    1.0    0.0   0.00   9.14    0.2    0.6    0.0    5.7   6.34   4.42    0.00    0.00   0.00   0.00   0.00   0.00   1.07   0.41
   15 090    14    13    1.1    0.0   0.00   7.75    0.2    0.6    0.0    5.2   6.34   4.32    0.00    0.00   0.00   0.00   0.00   0.00   1.06   0.41
   15 091    15    14    1.2    0.0   0.00   8.17    0.4    0.8    0.0    6.1   6.34   4.19    0.00    0.00   0.00   0.00   0.00   0.00   1.05   0.41
   15 092    16    15    1.3    0.0   0.00   7.85    0.4    0.8    0.0    6.0   6.34   4.13    0.00    0.00   0.00   0.00   0.00   0.00   1.04   0.41
   15 093    17    16    1.3    0.0   0.00   6.94    0.4    0.9    0.0    5.7   6.34   3.98    0.00    0.00   0.00   0.00   0.00   0.00   1.03   0.41
   15 094    18    17    1.4    0.0   0.00   6.98    0.5    0.9    0.0    6.0   6.34   3.92    0.00    0.00   0.00   0.00   0.00   0.00   1.02   0.41
   15 095    19    18    1.4    0.0   0.00   6.83    0.6    1.0    0.0    6.0   6.34   3.77    0.00    0.00   0.00   0.00   0.00   0.00   1.01   0.41
   15 096    20    19    1.5    0.0   0.00   6.63    0.6    1.0    0.0    6.0   6.34   3.65    0.00    0.00   0.00   0.00   0.00   0.00   1.00   0.41
   15 097    21    20    1.5    0.0   0.00   6.13    0.7    1.1    0.0    5.8   6.34   3.45    0.00    0.00   0.00   0.00   0.00   0.00   0.99   0.41
   15 098    22    21    1.6    0.0   0.00   5.14    0.7    1.1    0.0    5.0   6.34   3.25    0.00    0.00   0.00   0.00   0.00   0.00   0.98   0.41
   15 099    23    22    1.9    0.0   0.00   4.36    1.0    1.4    0.0    4.3   6.34   3.01    0.00    0.00   0.00   0.00   0.00   0.00   0.97   0.48
   15 100    24    23    2.6    0.0   0.00   5.04    1.8    2.0    0.0    5.1   6.34   2.81    0.00    0.00   0.22   0.48   0.73   0.73   0.96   0.64
   15 101    25    24    3.2    0.0   0.00   4.84    2.3    2.3    0.0    4.8   6.34   2.61    0.00    0.00   0.00   0.28   0.48   0.48   0.95   0.80
   15 102    26    25    3.9    0.0   0.00   4.94    3.1    2.9    0.0    5.0   6.34   2.39    0.00    0.00   0.00   0.33   0.55   0.55   0.94   0.97
   15 103    27    26    4.7    0.0   0.00   4.94    3.9    3.5    0.0    5.0   6.34   2.18    0.00    0.00   0.00   0.29   0.49   0.49   0.93   1.19
   15 104    28    27    5.2    0.0   0.00   4.55    4.4    3.8    0.0    4.6   6.34   1.94    0.00    0.00   0.00   0.28   0.47   0.47   0.92   1.32
   15 105    29    28    5.5    0.0   0.00   4.08    4.7    4.0    0.0    4.2   6.34   1.73    0.00    0.00   0.07   0.38   0.61   0.61   0.93   1.44
   15 106    30    29    5.8    0.0   0.00   3.96    4.9    4.2    0.0    4.1   6.34   1.62    0.00    0.00   0.25   0.50   0.75   0.75   0.94   1.55
   15 107    31    30    8.8    0.0   0.00   5.73    8.2    6.0    0.0    5.7   6.34   1.95    0.00    0.00   0.30   0.53   0.78   0.78   1.19   2.78
   15 108    32    31    9.6    0.0   0.00   5.85    9.3    6.4    0.0    5.8   6.34   2.04    0.00    0.00   0.00   0.00   0.00   0.00   1.44   3.16
   15 109    33    32   10.4    0.0   0.00   5.81   10.3    6.8    0.0    5.8   6.34   2.02    0.00    0.00   0.00   0.00   0.00   0.00   1.70   3.56
   15 110    34    33   11.7    0.0   0.00   5.73   11.8    7.4    0.0    5.7   6.34   1.96    0.00    0.00   0.00   0.00   0.00   0.00   1.92   4.20
   15 111    35    34   13.5    0.0   0.00   5.65   13.9    8.3    0.0    5.6   6.34   1.94    0.00    0.00   0.00   0.00   0.00   0.00   2.17   5.12
   15 112    36    35   15.6    0.0   0.00   5.59   16.4    9.4    0.0    5.6   6.34   1.93    0.00    0.00   0.00   0.00   0.00   0.00   2.50   6.21
   15 113    37    36   16.6    0.0   0.00   5.61   17.8    9.9    0.0    5.6   6.34   1.98    0.00    0.00   0.00   0.00   0.00   0.00   2.86   6.70
   15 114    38    37   18.2    0.0   0.00   5.52   20.0   10.7    0.0    5.5   6.34   1.95    0.00    0.00   0.00   0.00   0.00   0.00   3.44   7.53
[...]
   15 105    29    28    4.5    0.0   0.00   3.66    3.7    3.3    0.0    3.8   6.34   1.82    0.00    0.00   0.33   0.55   0.80   0.80   0.92   1.17
   15 106    30    29    4.8    0.0   0.00   3.54    3.9    3.5    0.0    3.6   6.34   1.73    0.00    0.00   0.44   0.63   0.86   0.86   0.92   1.26
   15 107    31    30    5.1    0.0   0.00   3.64    4.2    3.7    0.0    3.7   6.34   1.70    0.00    0.00   0.48   0.66   0.88   0.88   0.93   1.38
   15 108    32    31    5.6    0.0   0.00   3.85    4.8    4.0    0.0    4.0   6.34   1.65    0.00    0.00   0.44   0.62   0.86   0.86   0.97   1.58
   15 109    33    32    6.2    0.0   0.00   4.00    5.5    4.4    0.0    4.1   6.34   1.55    0.00    0.00   0.33   0.56   0.80   0.80   1.04   1.80
   15 110    34    33    6.7    0.0   0.00   3.96    6.1    4.7    0.0    4.1   6.34   1.43    0.00    0.00   0.26   0.51   0.76   0.76   1.10   2.01
   15 111    35    34    7.2    0.0   0.00   3.84    6.6    5.0    0.0    4.0   6.34   1.33    0.00    0.00   0.26   0.51   0.76   0.76   1.17   2.23
   15 112    36    35    7.7    0.0   0.00   3.71    7.2    5.2    0.0    3.9   6.34   1.24    0.00    0.00   0.31   0.54   0.79   0.79   1.25   2.44
   15 113    37    36    8.1    0.0   0.00   3.75    7.7    5.5    0.0    4.0   6.34   1.22    0.00    0.00   0.36   0.57   0.82   0.82   1.33   2.65
   15 114    38    37    8.6    0.0   0.00   3.68    8.3    5.7    0.0    3.9   6.34   1.14    0.00    0.00   0.33   0.55   0.80   0.80   1.43   2.86
   15 115    39    38    9.1    0.0   0.00   3.62    8.9    6.0    0.0    3.9   6.34   1.16    0.00    0.00   0.35   0.57   0.81   0.81   1.52   3.10
   15 116    40    39    9.6    0.0   0.00   3.47    9.5    6.2    0.0    3.7   6.34   1.14    0.00    0.00   0.36   0.57   0.82   0.82   1.61   3.34
   15 117    41    40   10.2    0.0   0.00   3.38   10.2    6.5    0.0    3.6   6.34   1.12    0.00    0.00   0.42   0.61   0.85   0.85   1.72   3.63
   15 118    42    41   10.7    0.0   0.00   3.42   10.9    6.8    0.0    3.7   6.34   1.15    0.00    0.00   0.46   0.64   0.87   0.87   1.81   3.91
   15 119    43    42   11.3    0.0   0.00   3.47   11.6    7.1    0.0    3.7   6.34   1.15    0.00    0.00   0.43   0.62   0.85   0.85   1.93   4.19
   15 120    44    43   11.9    0.0   0.00   3.44   12.4    7.4    0.0    3.7   6.34   1.12    0.00    0.00   0.39   0.59   0.83   0.83   2.06   4.48
   15 121    45    44   12.2    0.0   0.00   3.39   12.8    7.6    0.0    3.6   6.34   1.12    0.00    0.00   0.39   0.59   0.84   0.84   2.12   4.65
   15 122    46    45   12.5    0.0   0.00   3.29   13.2    7.7    0.0    3.5   6.34   1.08    0.00    0.00   0.41   0.60   0.84   0.84   2.17   4.80
   15 123    47    46   12.8    0.0   0.00   3.19   13.5    7.8    0.0    3.4   6.34   1.06    0.00    0.00   0.44   0.63   0.86   0.86   2.21   4.93
   15 124    48    47   13.2    0.0   0.00   3.06   13.9    8.0    0.0    3.3   6.34   1.04    0.00    0.00   0.48   0.66   0.88   0.88   2.27   5.12
   15 125    49    48   13.6    0.0   0.00   2.99   14.4    8.2    0.0    3.2   6.34   1.03    0.00    0.00   0.54   0.69   0.90   0.90   2.33   5.33
   15 126    50    49   13.8    0.0   0.00   2.92   14.7    8.3    0.0    3.1   6.34   0.99    0.00    0.00   0.56   0.71   0.91   0.91   2.36   5.44
   15 127    51    50   14.1    0.0   0.00   2.87   15.1    8.5    0.0    3.1   6.34   0.94    0.00    0.00   0.59   0.73   0.93   0.93   2.43   5.61
   15 128    52    51   14.6    0.0   0.00   2.82   15.7    8.7    0.0    3.0   6.34   0.91    0.00    0.00   0.61   0.74   0.93   0.93   2.53   5.82
   15 129    53    52   15.0    0.0   0.00   2.79   16.3    8.9    0.0    3.0   6.34   0.91    0.00    0.00   0.62   0.75   0.94   0.94   2.63   6.05
   15 130    54    53   15.5    0.0   0.00   2.77   16.9    9.2    0.0    3.0   6.34   0.90    0.00    0.00   0.62   0.75   0.94   0.94   2.75   6.29
   15 131    55    54   16.0    0.0   0.00   2.76   17.5    9.4    0.0    3.0   6.34   0.89    0.00    0.00   0.62   0.75   0.94   0.94   2.88   6.54
   15 132    56    55   16.5    0.0   0.00   2.71   18.2    9.7    0.0    2.9   6.34   0.87    0.00    0.00   0.61   0.74   0.93   0.93   3.01   6.80
   15 133    57    56   17.0    0.0   0.00   2.66   18.9    9.9    0.0    2.8   6.34   0.87    0.00    0.00   0.63   0.75   0.94   0.94   3.15   7.07
   15 134    58    57   17.5    0.0   0.00   2.65   19.6   10.2    0.0    2.8   6.34   0.86    0.00    0.00   0.64   0.76   0.94   0.94   3.30   7.34
   15 135    59    58   18.1    0.0   0.00   2.66   20.4   10.4    0.0    2.8   6.34   0.89    0.00    0.00   0.64   0.76   0.94   0.94   3.45   7.63
   15 136    60    59   18.6    0.0   0.00   2.65   21.1   10.7    0.0    2.8   6.34   0.89    0.00    0.00   0.61   0.74   0.93   0.93   3.60   7.90
   15 137    61    60   19.2    0.0   0.00   2.63   21.8   11.0    0.0    2.8   6.34   0.88    0.00    0.00   0.60   0.74   0.93   0.93   3.76   8.17
   15 138    62    61   19.7    0.0   0.00   2.60   22.5   11.2    0.0    2.8   6.34   0.87    0.00    0.00   0.60   0.73   0.93   0.93   3.93   8.45
   15 139    63    62   20.2    0.0   0.00   2.58   23.3   11.5    0.0    2.7   0.92   0.89    0.00    0.00   0.60   0.74   0.93   0.93   4.08   8.72
   15 140    64    63   20.7    0.0   0.00   2.58   23.9   11.7    0.1    2.7   0.79   0.91    0.00    0.00   0.60   0.74   0.93   0.93   4.20   8.96
   15 141    65    64   21.2    0.0   0.00   2.55   24.5   11.9    0.1    2.7   0.67   0.92    0.00    0.00   0.59   0.72   0.92   0.92   4.31   9.18
   15 142    66    65   21.6    0.0   0.00   2.48   25.1   12.1    0.1    2.7   0.58   0.92    0.00    0.00   0.60   0.73   0.93   0.93   4.41   9.40
   15 143    67    66   22.1    0.0   0.00   2.44   25.7   12.3    0.2    2.6   0.58   0.93    0.00    0.00   0.63   0.76   0.94   0.94   4.50   9.61
   15 144    68    67   22.5    0.0   0.00   2.41   26.3   12.5    0.2    2.6   0.61   0.93    0.00    0.00   0.64   0.76   0.94   0.94   4.59   9.81
   15 145    69    68   23.0    0.0   0.00   2.37   26.9   12.7    0.3    2.6   0.61   0.94    0.00    0.00   0.64   0.76   0.94   0.94   4.68  10.01
   15 146    70    69   23.4    0.0   0.00   2.35   27.5   12.9    0.3    2.6   0.64   0.94    0.00    0.00   0.66   0.77   0.95   0.95   4.77  10.22
   15 147    71    70   23.9    0.0   0.00   2.31   28.0   13.1    0.4    2.5   0.66   0.95    0.00    0.00   0.66   0.77   0.95   0.95   4.86  10.41
   15 148    72    71   24.3    0.0   0.00   2.25   28.6   13.2    0.5    2.5   0.64   0.94    0.00    0.00   0.67   0.78   0.95   0.95   4.94  10.61
   15 149    73    72   24.7    0.0   0.00   2.21   29.2   13.4    0.5    2.5   0.65   0.94    0.00    0.00   0.70   0.80   0.96   0.96   5.02  10.79
   15 150    74    73   25.2    0.0   0.00   2.19   29.8   13.6    0.6    2.4   0.67   0.94    0.00    0.00   0.70   0.80   0.96   0.96   5.11  10.98
   15 151    75    74   25.6    0.0   0.00   2.15   30.3   13.7    0.7    2.4   0.67   0.94    0.00    0.00   0.70   0.80   0.96   0.96   5.19  11.16
   15 152    76    75   26.0    0.0   0.00   2.12   30.9   13.9    0.8    2.4   0.68   0.94    0.00    0.00   0.70   0.80   0.96   0.96   5.27  11.33
   15 153    77    76   26.5    0.0   0.00   2.09   31.5   14.1    0.9    2.4   0.69   0.93    0.00    0.00   0.70   0.80   0.96   0.96   5.35  11.50
   15 154    78    77   26.9    0.0   0.00   2.05   32.0   14.2    1.1    2.3   0.69   0.93    0.00    0.00   0.69   0.80   0.96   0.96   5.44  11.66
   15 155    79    78   27.4    0.0   0.00   2.02   32.6   14.3    1.2    2.3   0.69   0.93    0.00    0.00   0.69   0.80   0.96   0.96   5.53  11.82
   15 156    80    79   27.8    0.0   0.00   1.99   33.3   14.5    1.3    2.3   0.70   0.93    0.00    0.00   0.69   0.79   0.96   0.96   5.63  11.98
   15 157    81    80   28.3    0.0   0.00   1.96   33.9   14.6    1.5    2.3   0.72   0.93    0.00    0.00   0.68   0.79   0.95   0.95   5.75  12.15
   15 158    82    81   28.8    0.0   0.00   1.94   34.6   14.8    1.7    2.3   0.73   0.94    0.00    0.00   0.66   0.77   0.95   0.95   5.88  12.31
   15 159    83    82   29.4    0.0   0.00   1.94   35.4   14.9    1.9    2.3   0.78   0.96    0.00    0.00   0.65   0.77   0.95   0.95   6.05  12.50
   15 160    84    83   30.0    0.0   0.00   1.96   36.3   15.1    2.2    2.3   0.85   0.99    0.00    0.00   0.61   0.74   0.93   0.93   6.24  12.70
   15 161    85    84   30.6    0.0   0.00   1.95   37.2   15.2    2.5    2.3   0.89   1.01    0.00    0.00   0.55   0.70   0.91   0.91   6.45  12.89
   15 162    86    85   31.2    0.0   0.00   1.93   38.1   15.4    2.8    2.2   0.89   1.02    0.00    0.00   0.50   0.67   0.89   0.89   6.65  13.07
   15 163    87    86   31.8    0.0   0.00   1.87   38.9   15.5    3.2    2.3   0.82   1.02    0.00    0.00   0.47   0.65   0.88   0.88   6.83  13.19
   15 164    88    87   32.4    0.0   0.00   1.84   39.8   15.5    3.6    2.3   0.79   1.04    0.00    0.00   0.45   0.64   0.87   0.87   7.03  13.29
   15 165    89    88   33.0    0.0   0.00   1.79   40.6   15.5    4.1    2.3   0.76   1.04    0.00    0.00   0.41   0.61   0.85   0.85   7.22  13.35
   15 166    90    89   33.5    0.0   0.00   1.77   41.4   15.5    4.5    2.3   0.79   1.06    0.00    0.00   0.42   0.61   0.85   0.85   7.42  13.39
   15 167    91    90   34.1    0.0   0.00   1.74   42.3   15.5    5.1    2.3   0.79   1.08    0.00    0.00   0.35   0.57   0.81   0.81   7.65  13.40
   15 168    92    91   34.7    0.0   0.00   1.70   43.3   15.5    5.8    2.3   0.79   1.09    0.00    0.00   0.35   0.57   0.81   0.81   7.90  13.40
   15 169    93    92   35.3    0.0   0.00   1.69   44.1   15.5    6.4    2.3   0.82   1.11    0.00    0.00   0.36   0.57   0.82   0.82   8.10  13.40
   15 170    94    93   35.9    0.0   0.00   1.66   45.0   15.5    7.0    2.3   0.82   1.12    0.00    0.00   0.30   0.53   0.78   0.78   8.30  13.40
   15 171    95    94   36.6    0.0   0.00   1.64   46.0   15.5    7.6    2.3   0.83   1.13    0.00    0.00   0.29   0.52   0.77   0.77   8.50  13.40
   15 172    96    95   37.2    0.0   0.00   1.62   46.9   15.5    8.3    2.3   0.84   1.14    0.00    0.00   0.25   0.50   0.75   0.75   8.68  13.40
   15 173    97    96   37.8    0.0   0.00   1.59   47.6   15.5    8.8    2.3   0.83   1.14    0.00    0.00   0.21   0.47   0.72   0.72   8.82  13.40
   15 174    98    97   38.3    0.0   0.00   1.55   48.4   15.5    9.4    2.3   0.81   1.14    0.00    0.00   0.20   0.47   0.72   0.72   8.96  13.40
   15 175    99    98   38.9    0.0   0.00   1.52   49.3   15.5   10.0    2.3   0.79   1.13    0.00    0.00   0.20   0.47   0.72   0.72   9.11  13.40
   15 176   100    99   39.6    0.0   0.00   1.48   50.2   15.5   10.6    2.3   0.78   1.13    0.00    0.00   0.21   0.47   0.72   0.72   9.26  13.40
   15 177   101   100   40.2    0.0   0.00   1.45   51.0   15.5   11.2    2.3   0.77   1.12    0.00    0.00   0.19   0.46   0.71   0.71   9.40  13.40
   15 178   102   101   40.8    0.0   0.00   1.43   51.8   15.5   11.8    2.3   0.77   1.13    0.00    0.00   0.17   0.44   0.69   0.69   9.54  13.40
   15 179   103   102   41.4    0.0   0.00   1.39   52.7   15.5   12.4    2.3   0.75   1.13    0.00    0.00   0.07   0.38   0.62   0.62   9.67  13.40
   15 180   104   103   42.0    0.0   0.00   1.35   53.5   15.5   13.0    2.3   0.73   1.13    0.00    0.00   0.00   0.33   0.55   0.55   9.80  13.40
   15 181   105   104   42.5    0.0   0.00   1.32   54.3   15.5   13.6    2.3   0.71   1.13    0.00    0.00   0.00   0.20   0.35   0.35   9.93  13.40
   15 182   106   105   43.1    0.0   0.00   1.29   55.1   15.5   14.1    2.3   0.69   1.14    0.00    0.00   0.00   0.02   0.04   0.04  10.05  13.40
   15 183   107   106   43.6    0.0   0.00   1.25   55.8   15.5   14.6    2.3   0.68   1.14    0.00    0.00   0.00   0.00   0.00   0.00  10.17  13.40
   15 184   108   107   44.1    0.0   0.00   1.23   56.5   15.5   15.1    2.3   0.67   1.16    0.00    0.00   0.00   0.00   0.00   0.00  10.30  13.40
   15 185   109   108   44.5    0.0   0.00   1.21   57.1   15.5   15.6    2.3   0.66   1.17    0.00    0.00   0.00   0.00   0.00   0.00  10.44  13.40
   15 186   110   109   44.9    0.0   0.00   1.19   57.8   15.5   16.0    2.3   0.65   1.18    0.00    0.00   0.00   0.00   0.00   0.00  10.60  13.40
   15 187   111   110   45.2    0.0   0.00   1.17   58.4   15.5   16.3    2.3   0.64   1.20    0.00    0.00   0.00   0.00   0.00   0.00  10.79  13.40
   15 188   112   111   45.4    9.5   2.62   1.00   59.1   13.4   16.4    2.0   0.72   1.25    0.00    0.00   0.00   0.00   0.00   0.00  11.17   6.16
   15 189   113   112   45.6   11.1   2.25   0.97   59.9   12.1   16.4    1.8   0.73   1.32    0.00    0.00   0.00   0.00   0.00   0.00  11.77   5.90
   15 190   114   113   45.6   12.5   2.05   0.94   60.6   11.1   16.3    1.6   0.74   1.38    0.00    0.00   0.00   0.00   0.00   0.00  12.33   5.67
   15 191   115   114   45.6   14.1   1.94   0.89   61.3   10.1   16.1    1.5   0.72   1.44    0.00    0.00   0.00   0.00   0.00   0.00  12.89   5.43
   15 192   116   115   45.6   16.0   1.90   0.84   62.0    8.8   15.7    1.3   0.71   1.50    0.00    0.00   0.00   0.00   0.00   0.00  13.42   5.13
   15 193   117   116   45.6   17.9   1.84   0.80   62.6    7.6   15.3    1.1   0.70   1.56    0.00    0.00   0.00   0.00   0.00   0.00  13.91   4.82
   15 194   118   117   45.6   19.6   1.77   0.76   63.3    6.7   14.8    1.0   0.71   1.62    0.00    0.00   0.00   0.00   0.00   0.00  14.39   4.57
   15 195   119   118   45.7   21.4   1.71   0.73   63.9    5.8   14.1    0.8   0.70   1.67    0.00    0.00   0.00   0.00   0.00   0.00  14.75   4.32
   15 196   120   119   46.2   23.4   1.67   0.70   64.5    5.2   13.5    0.8   0.69   1.67    0.00    0.00   0.00   0.00   0.00   0.00  14.67   4.13
   15 197   121   120   47.3   25.7   1.68   0.67   65.0    4.8   12.8    0.7   0.66   1.61    0.00    0.00   0.00   0.00   0.00   0.00  14.07   3.98
   15 198   122   121   48.3   27.8   1.68   0.64   65.6    4.5   12.2    0.7   0.65   1.56    0.00    0.00   0.00   0.00   0.00   0.00  13.48   3.84
   15 199   123   122   49.1   29.6   1.65   0.63   66.2    4.3   11.6    0.6   0.64   1.52    0.00    0.00   0.00   0.00   0.00   0.00  13.06   3.73
   15 200   124   123   49.9   31.2   1.63   0.61   66.7    4.1   11.0    0.6   0.63   1.50    0.00    0.00   0.00   0.00   0.00   0.00  12.74   3.62
   15 201   125   124   50.5   32.7   1.65   0.58   67.2    3.9   10.4    0.6   0.59   1.48    0.00    0.00   0.00   0.00   0.00   0.00  12.48   3.52
   15 202   126   125   51.1   34.0   1.65   0.56   67.7    3.8    9.9    0.6   0.57   1.47    0.00    0.00   0.00   0.00   0.00   0.00  12.25   3.42
   15 203   127   126   51.7   35.2   1.66   0.54   68.2    3.7    9.5    0.5   0.54   1.46    0.00    0.00   0.00   0.00   0.00   0.00  12.05   3.32
   15 204   128   127   52.2   36.2   1.67   0.52   68.6    3.5    9.2    0.5   0.52   1.45    0.00    0.00   0.00   0.00   0.00   0.00  11.86   3.23
   15 205   129   128   52.7   37.2   1.66   0.50   69.1    3.4    8.9    0.5   0.51   1.44    0.00    0.00   0.00   0.00   0.00   0.00  11.68   3.14
   15 206   130   129   53.2   38.2   1.65   0.49   69.5    3.3    8.6    0.5   0.49   1.44    0.00    0.00   0.00   0.00   0.00   0.00  11.52   3.05
   15 207   131   130   53.6   39.1   1.64   0.47   69.9    3.3    8.4    0.5   0.47   1.43    0.00    0.00   0.00   0.00   0.00   0.00  11.36   2.97
   15 208   132   131   54.1   39.9   1.63   0.46   70.3    3.2    8.2    0.5   0.46   1.43    0.00    0.00   0.00   0.00   0.00   0.00  11.22   2.90
   15 209   133   132   54.5   40.7   1.62   0.45   70.7    3.1    7.9    0.5   0.45   1.43    0.00    0.00   0.00   0.00   0.00   0.00  11.09   2.83
   15 210   134   133   54.9   41.4   1.62   0.44   71.1    3.0    7.7    0.4   0.44   1.43    0.00    0.00   0.00   0.00   0.00   0.00  10.98   2.76
   15 211   135   134   55.4   42.2   1.61   0.43   71.5    2.9    7.6    0.4   0.43   1.42    0.00    0.00   0.00   0.00   0.00   0.00  10.84   2.69
   15 212   136   135   55.8   42.9   1.60   0.42   71.9    2.9    7.4    0.4   0.42   1.42    0.00    0.00   0.00   0.00   0.00   0.00  10.69   2.63
   15 213   137   136   56.2   43.6   1.61   0.41   72.2    2.8    7.2    0.4   0.41   1.41    0.00    0.00   0.00   0.00   0.00   0.00  10.54   2.56
   15 214   138   137   56.5   44.3   1.61   0.40   72.6    2.7    7.0    0.4   0.40   1.41    0.00    0.00   0.00   0.00   0.00   0.00  10.40   2.50
   15 215   139   138   56.9   45.0   1.60   0.39   72.9    2.6    6.8    0.4   0.39   1.40    0.00    0.00   0.00   0.00   0.00   0.00  10.26   2.43
   15 216   140   139   57.3   45.8   1.61   0.38   73.2    2.6    6.6    0.4   0.38   1.39    0.00    0.00   0.00   0.00   0.00   0.00  10.11   2.35
   15 217   141   140   57.6   46.5   1.62   0.36   73.5    2.5    6.4    0.4   0.36   1.39    0.00    0.00   0.00   0.00   0.00   0.00   9.97   2.28
   15 218   142   141   58.0   47.2   1.63   0.35   73.8    2.4    6.1    0.4   0.35   1.38    0.00    0.00   0.00   0.00   0.00   0.00   9.83   2.20
   15 219   143   142   58.3   48.0   1.64   0.34   74.1    2.3    5.9    0.3   0.34   1.38    0.00    0.00   0.00   0.00   0.00   0.00   9.69   2.12
   15 220   144   143   58.4   48.4   1.65   0.33   74.3    2.2    5.7    0.3   0.33   1.41    0.00    0.00   0.00   0.06   0.12   0.12   9.82   2.04
   15 221   145   144   58.4   48.4   1.65   0.32   74.5    2.2    5.7    0.3   0.32   1.45    0.00    0.00   0.00   0.09   0.18   0.18   9.97   2.04
   15 222   146   145   58.4   48.4   1.65   0.32   74.6    2.2    5.7    0.3   0.32   1.49    0.00    0.00   0.00   0.00   0.00   0.00  10.15   2.04
   15 223   147   146   58.4   48.4   1.65   0.32   74.6    2.2    5.7    0.3   0.32   1.53    0.00    0.00   0.00   0.00   0.00   0.00  10.33   2.04
   15 224   148   147   58.4   48.4   1.65   0.32   74.6    2.2    5.7    0.3   0.32   1.53    0.00    0.00   0.00   0.00   0.00   0.00  10.22   2.04
   15 225   149   148   58.4   48.4   1.65   0.32   74.6    2.2    5.7    0.3   0.32   1.53    0.00    0.00   0.00   0.00   0.00   0.00  10.22   2.04
   15 226   150   149   58.4   48.4   1.65   0.32   74.6    2.2    5.7    0.3   0.32   1.53    0.00    0.00   0.00   0.00   0.00   0.00  10.22   2.04
   15 227   151   150   58.4   48.4   1.65   0.32   74.6    2.2    5.7    0.3   0.32   1.53    0.00    0.00   0.00   0.00   0.00   0.00  10.22   2.04
   15 228   152   151   58.4   48.4   1.65   0.32   74.6    2.2    5.7    0.3   0.32   1.53    0.00    0.00   0.00   0.00   0.00   0.00  10.22   2.04
   15 229   153   152   58.4   48.4   1.65   0.32   74.6    2.2    5.7    0.3   0.32   1.53    0.00    0.00   0.00   0.00   0.00   0.00  10.22   2.04
   15 230   154   153   58.4   48.4   1.65   0.32   74.6    2.2    5.7    0.3   0.32   1.53    0.00    0.00   0.00   0.00   0.00   0.00  10.22   2.04
   15 231   155   154   58.4   48.4   1.65   0.32   74.6    2.2    5.7    0.3   0.32   1.53    0.00    0.00   0.00   0.00   0.00   0.00  10.22   2.04
   15 232   156   155   58.4   48.4   1.65   0.32   74.6    2.2    5.7    0.3   0.32   1.53    0.00    0.00   0.00   0.00   0.00   0.00  10.22   2.04
   15 233   157   156   58.4   48.4   1.65   0.32   74.6    2.2    5.7    0.3   0.32   1.53    0.00    0.00   0.00   0.00   0.00   0.00  10.22   2.04
   15 234   158   157   58.4   48.4   1.65   0.32   74.6    2.2    5.7    0.3   0.32   1.53    0.00    0.00   0.00   0.00   0.00   0.00  10.22   2.04
   15 235   159   158   58.4   48.4   1.65   0.32   74.6    2.2    5.7    0.3   0.32   1.53    0.00    0.00   0.00   0.00   0.00   0.00  10.22   2.04
   15 236   160   159   58.4   48.4   1.65   0.32   74.6    2.2    5.7    0.3   0.32   1.53    0.00    0.00   0.00   0.00   0.00   0.00  10.22   2.04
   15 237   161   160   58.4   48.4   1.65   0.32   74.6    2.2    5.7    0.3   0.32   1.53    0.00    0.00   0.00   0.00   0.00   0.00  10.22   2.04
