*GROWTH ASPECTS OUTPUT FILE

*DSSAT Cropping System Model Ver. 4.8.5.000 -release  NOV 27, 2025 15:48:13

*RUN   1        : 1                         WHAPS048 TUDU1501    1
 MODEL          : WHAPS048 - Wheat
 EXPERIMENT     : TUDU1501 WH
 DATA PATH      :
 TREATMENT  1   : 1                         WHAPS048
  
!                                                                                                                                                                                                                                             Root Dens. (cm/cm3) by soil depth (cm):
!                                                                                                                                                                                                                                             0-5    5-15   15-20   20-30   30-40   40-50   50-60   60-70   70-90  90-210
@YEAR DOY   DAS   DAP    DCCD  GSTD   LAID   LWAD   SWAD   GWAD   RWAD   VWAD   CWAD   G#AD   G#AD2  GWGD   HIAD   SHAD   WSPD   WSGD   SLFT   NSTD   EWSD  PST1A  PST2A   KSTD   LN%D   TPSM   HIPD   PWDD   PWTD     SLAD   CHTD   CWID   RDPD    RL1D    RL2D    RL3D    RL4D    RL5D    RL6D    RL7D    RL8D    RL9D   RL10D   CDAD   LDAD   SDAD   SNW0C   SNW1C    DTTD   SUMDTT
   15 077     1     0   0.000     8  0.000      0      0      0      0      0      0      0      0    0.0  0.000      0   0.00   0.00   0.00   0.00   0.00   0.00   0.00   1.00   0.00    0.0   0.00      0      0      0.0   0.00   0.00 0.0250   0.000   0.000   0.000   0.000   0.000   0.000   0.000   0.000   0.000   0.000      0      0      0       0       0   7.000    0.000
   15 078     2     1   0.000     8  0.000      0      0      0      0      0      0      0      0    0.0  0.000      0   0.00   0.00   0.00   0.00   0.00   0.00   0.00   1.00   0.00    0.0   0.00      0      0      0.0   0.00   0.00 0.0250   0.000   0.000   0.000   0.000   0.000   0.000   0.000   0.000   0.000   0.000      0      0      0       0       0   7.097    7.097
   15 079     3     2   1.022     9  0.000      0      0      0      0      0      0      0      0    0.0  0.000      0   0.00   0.00   0.00   0.00   0.00   0.00   0.00   1.00   0.00    0.0   0.00      0      0      0.0   0.00   0.00 0.0250   0.000   0.000   0.000   0.000   0.000   0.000   0.000   0.000   0.000   0.000      0      0      0       0       0   6.695    6.695
   15 080     4     3   2.060     9  0.000      0      0      0      0      0      0      0      0    0.0  0.000      0   0.00   0.00   0.00   0.00   0.00   0.00   0.00   1.00   0.00    0.0   0.00      0      0      0.0   0.00   0.00 0.0317   0.000   0.000   0.000   0.000   0.000   0.000   0.000   0.000   0.000   0.000      0      0      0       0       0   6.798   13.493
   15 081     5     4   2.594     9  0.000      0      0      0      0      0      0      0      0    0.0  0.000      0   0.00   0.00   0.00   0.00   0.00   0.00   0.00   1.00   0.00    0.0   0.00      0      0      0.0   0.00   0.00 0.0385   0.000   0.000   0.000   0.000   0.000   0.000   0.000   0.000   0.000   0.000      0      0      0       0       0   3.500   16.993
   15 082     6     5   3.052     9  0.000      0      0      0      0      0      0      0      0    0.0  0.000      0   0.00   0.00   0.00   0.00   0.00   0.00   0.00   1.00   0.00    0.0   0.00      0      0      0.0   0.00   0.00 0.0420   0.000   0.000   0.000   0.000   0.000   0.000   0.000   0.000   0.000   0.000      0      0      0       0       0   3.000   19.993
   15 083     7     6   4.227     9  0.000      0      0      0      0      0      0      0      0    0.0  0.000      0   0.00   0.00   0.00   0.00   0.00   0.00   0.00   1.00   0.00    0.0   0.00      0      0      0.0   0.00   0.00 0.0450   0.000   0.000   0.000   0.000   0.000   0.000   0.000   0.000   0.000   0.000      0      0      0       0       0   7.695   27.688
   15 084     8     7   5.525     9  0.000      0      0      0      0      0      0      0      0    0.0  0.000      0   0.00   0.00   0.00   0.00   0.00   0.00   0.00   1.00   0.00    0.0   0.00      0      0      0.0   0.00   0.00 0.0500   0.000   0.000   0.000   0.000   0.000   0.000   0.000   0.000   0.000   0.000      0      0      0       0       0   8.500   36.188
   15 085     9     8   6.365     9  0.000      0      0      0      0      0      0      0      0    0.0  0.000      0   0.00   0.00   0.00   0.00   0.00   0.00   0.00   1.00   0.00    0.0   0.00      0      0      0.0   0.00   0.00 0.0500   0.000   0.000   0.000   0.000   0.000   0.000   0.000   0.000   0.000   0.000      0      0      0       0       0   5.500   41.688
   15 086    10     9   7.281     9  0.000      0      0      0      0      0      0      0      0    0.0  0.000      0   0.00   0.00   0.00   0.00   0.00   0.00   0.00   1.00   0.00    0.0   0.00      0      0      0.0   0.00   0.00 0.0500   0.000   0.000   0.000   0.000   0.000   0.000   0.000   0.000   0.000   0.000      0      0      0       0       0   6.000   47.688
   15 087    11    10   8.197     9  0.000      0      0      0      0      0      0      0      0    0.0  0.000      0   0.00   0.00   0.00   0.00   0.00   0.00   0.00   1.00   0.00    0.0   0.00      0      0      0.0   0.00   0.00 0.0500   0.000   0.000   0.000   0.000   0.000   0.000   0.000   0.000   0.000   0.000      0      0      0       0       0   6.000   53.688
   15 088    12    11   9.571     9  0.000      0      0      0      0      0      0      0      0    0.0  0.000      0   0.00   0.00   0.00   0.00   0.00   0.00   0.00   1.00   0.00    0.0   0.00      0      0      0.0   0.00   0.00 0.0500   0.000   0.000   0.000   0.000   0.000   0.000   0.000   0.000   0.000   0.000      0      0      0       0       0   9.000   62.688
   15 089    13    12  10.159     1  0.018     10      0      0     24     11     11      0      0    0.0  0.000      1   0.00   0.00   1.00   0.00   0.00   0.00   0.00   1.00   5.68  400.0   0.00      0      1    299.5   0.00   0.00 0.0614   0.042   0.005   0.000   0.000   0.000   0.000   0.000   0.000   0.000   0.000      0      0      0       0       0   6.000    3.188
   15 090    14    13  10.362     1  0.019     13      0      0     24     14     14      0      0    0.0  0.000      1   0.00   0.00   1.00   0.00   0.00   0.00   0.00   1.00   5.18  400.0   0.00      0      1    298.9   0.00   0.00 0.0747   0.042   0.005   0.000   0.000   0.000   0.000   0.000   0.000   0.000   0.000      0      0      0       0       0   7.000    7.237
   15 091    15    14  10.450     1  0.021     13      0      0     25     15     15      0      0    0.0  0.000      2   0.00   0.00   1.00   0.00   0.00   0.00   0.00   1.00   6.05  400.0   0.00      0      2    298.7   0.00   0.00 0.0804   0.041   0.005   0.000   0.000   0.000   0.000   0.000   0.000   0.000   0.000      0      0      0       0       0   3.000    9.004
   15 092    16    15  10.540     1  0.022     14      0      0     25     16     16      0      0    0.0  0.000      2   0.00   0.00   1.00   0.00   0.00   0.00   0.00   1.00   6.02  400.0   0.00      0      2    298.4   0.00   0.00 0.0861   0.041   0.005   0.000   0.000   0.000   0.000   0.000   0.000   0.000   0.000      0      0      0       0       0   3.000   10.802
   15 093    17    16  10.695     1  0.025     15      0      0     26     19     19      0      0    0.0  0.000      3   0.00   0.00   1.00   0.00   0.00   0.00   0.00   1.00   5.66  400.0   0.00      0      3    298.0   0.00   0.00 0.0958   0.041   0.005   0.000   0.000   0.000   0.000   0.000   0.000   0.000   0.000      0      0      0       0       0   5.097   13.908
   15 094    18    17  10.789     1  0.027     16      0      0     26     20     20      0      0    0.0  0.000      4   0.00   0.00   1.00   0.00   0.00   0.00   0.00   1.00   5.98  400.0   0.00      0      4    297.7   0.00   0.00 0.1014   0.040   0.005   0.000   0.000   0.000   0.000   0.000   0.000   0.000   0.000      0      0      0       0       0   3.000   15.773
   15 095    19    18  10.889     1  0.028     16      0      0     27     21     21      0      0    0.0  0.000      4   0.00   0.00   1.00   0.00   0.00   0.00   0.00   1.00   6.04  400.0   0.00      0      4    297.4   0.00   0.00 0.1075   0.040   0.005   0.000   0.000   0.000   0.000   0.000   0.000   0.000   0.000      0      0      0       0       0   3.195   17.788
   15 096    20    19  10.992     1  0.030     17      0      0     27     22     22      0      0    0.0  0.000      5   0.00   0.00   1.00   0.00   0.00   0.00   0.00   1.00   6.02  400.0   0.00      0      5    297.2   0.00   0.00 0.1136   0.040   0.005   0.000   0.000   0.000   0.000   0.000   0.000   0.000   0.000      0      0      0       0       0   3.195   19.833
   15 097    21    20  11.128     1  0.033     18      0      0     29     24     24      0      0    0.0  0.000      6   0.00   0.00   1.00   0.00   0.00   0.00   0.00   1.00   5.80  400.0   0.00      0      6    296.8   0.00   0.00 0.1215   0.039   0.005   0.000   0.000   0.000   0.000   0.000   0.000   0.000   0.000      0      0      0       0       0   4.195   22.555
   15 098    22    21  11.342     1  0.039     22      0      0     30     31     31      0      0    0.0  0.000      8   0.00   0.00   1.00   0.00   0.00   0.00   0.00   1.00   5.05  400.0   0.00      0      8    296.2   0.00   0.00 0.1339   0.039   0.005   0.000   0.000   0.000   0.000   0.000   0.000   0.000   0.000      0      0      0       0       0   6.500   26.830
   15 099    23    22  11.674     1  0.047     32      0      0     32     43     43      0      0    0.0  0.000     10   0.00   0.00   1.00   0.00   0.00   0.00   0.00   1.00   4.28  400.0   0.00      0     10    295.4   0.00   0.00 0.1529   0.039   0.005   0.000   0.000   0.000   0.000   0.000   0.000   0.000   0.000      0      0      0       0       0  10.000   33.475
   15 100    24    23  12.042     1  0.055     38      0      0     34     52     52      0      0    0.0  0.000     13   0.00   0.00   1.00   0.48   0.00   0.00   0.00   1.00   5.10  400.0   0.00      0     13    294.5   0.00   0.00 0.1722   0.039   0.005   0.000   0.000   0.000   0.000   0.000   0.000   0.000   0.000      0      0      0       0       0  11.000   40.847
   15 101    25    24  12.431     1  0.064     48      0      0     36     65     65      0      0    0.0  0.000     16   0.00   0.00   1.00   0.28   0.00   0.00   0.00   1.00   4.80  400.0   0.00      0     16    293.5   0.00   0.00 0.1925   0.039   0.005   0.000   0.000   0.000   0.000   0.000   0.000   0.000   0.000      0      0      0       0       0  11.500   48.616
   15 102    26    25  12.822     1  0.075     59      0      0     39     79     79      0      0    0.0  0.000     20   0.00   0.00   1.00   0.33   0.00   0.00   0.00   1.00   4.95  400.0   0.00      0     20    292.6   0.00   0.00 0.2127   0.039   0.005   0.000   0.000   0.000   0.000   0.000   0.000   0.000   0.000      0      0      0       0       0  11.500   56.448
   15 103    27    26  13.217     1  0.088     70      0      0     43     95     95      0      0    0.0  0.000     24   0.00   0.00   1.00   0.29   0.00   0.00   0.00   1.00   4.96  400.0   0.00      0     24    291.7   0.00   0.00 0.2304   0.039   0.005   0.000   0.000   0.000   0.000   0.000   0.000   0.000   0.000      0      0      0       0       0  11.500   64.341
   15 104    28    27  13.615     1  0.106     83      0      0     47    114    114      0      0    0.0  0.000     31   0.00   0.00   1.00   0.28   0.00   0.00   0.00   1.00   4.63  400.0   0.00      0     31    290.9   0.00   0.00 0.2481   0.039   0.005   0.000   0.000   0.000   0.000   0.000   0.000   0.000   0.000      0      0      0       0       0  11.500   72.297
   15 105    29    28  14.101     1  0.129     96      0      0     54    135    135      0      0    0.0  0.000     39   0.00   0.00   1.00   0.37   0.00   0.00   0.00   1.00   4.22  400.0   0.00      0     39    289.9   0.00   0.00 0.2697   0.038   0.005   0.001   0.000   0.000   0.000   0.000   0.000   0.000   0.000      0      0      0       0       0  14.000   82.028
   15 106    30    29  14.625     1  0.146    102      0      0     58    146    146      0      0    0.0  0.000     44   0.00   0.00   1.00   0.50   0.00   0.00   0.00   1.00   4.15  400.0   0.00      0     44    288.9   0.00   0.00 0.2928   0.038   0.005   0.001   0.001   0.000   0.000   0.000   0.000   0.000   0.000      0      0      0       0       0  15.000   92.491
   15 107    31    30  14.994     1  0.157    105      0      0     61    154    154      0      0    0.0  0.000     48   0.00   0.00   1.00   0.53   0.00   0.00   0.00   1.00   5.82  400.0   0.00      0     48    288.2   0.00   0.00 0.3090   0.038   0.005   0.001   0.001   0.000   0.000   0.000   0.000   0.000   0.000      0      0      0       0       0  10.500   99.881
   15 108    32    31  15.172     1  0.172    111      0      0     71    164    164      0      0    0.0  0.000     53   0.00   0.00   1.00   0.00   0.00   0.00   0.00   1.00   5.81  400.0   0.00      0     53    287.9   0.00   0.00 0.3159   0.038   0.005   0.001   0.001   0.000   0.000   0.000   0.000   0.000   0.000      0      0      0       0       0   5.000  103.448
   15 109    33    32  15.389     1  0.193    118      0      0     84    179    179      0      0    0.0  0.000     61   0.00   0.00   1.00   0.00   0.00   0.00   0.00   1.00   5.78  400.0   0.00      0     61    287.5   0.00   0.00 0.3243   0.038   0.006   0.002   0.001   0.000   0.000   0.000   0.000   0.000   0.000      0      0      0       0       0   6.000  107.783
   15 110    34    33  15.681     1  0.228    130      0      0     98    204    204      0      0    0.0  0.000     73   0.00   0.00   1.00   0.00   0.00   0.00   0.00   1.00   5.71  400.0   0.00      0     73    287.0   0.00   0.00 0.3354   0.039   0.006   0.002   0.001   0.000   0.000   0.000   0.000   0.000   0.000      0      0      0       0       0   8.000  113.630
   15 111    35    34  16.050     1  0.278    148      0      0    112    239    239      0      0    0.0  0.000     91   0.00   0.00   1.00   0.00   0.00   0.00   0.00   1.00   5.63  400.0   0.00      0     91    286.4   0.00   0.00 0.3493   0.039   0.007   0.002   0.001   0.000   0.000   0.000   0.000   0.000   0.000      0      0      0       0       0  10.000  121.004
   15 112    36    35  16.441     1  0.337    168      0      0    129    279    279      0      0    0.0  0.000    111   0.00   0.00   1.00   0.00   0.00   0.00   0.00   1.00   5.58  400.0   0.00      0    111    285.8   0.00   0.00 0.3640   0.040   0.007   0.003   0.002   0.000   0.000   0.000   0.000   0.000   0.000      0      0      0       0       0  10.500  128.812
   15 113    37    36  16.666     1  0.360    176      0      0    145    296    296      0      0    0.0  0.000    119   0.00   0.00   1.00   0.00   0.00   0.00   0.00   1.00   5.59  400.0   0.00      0    119    285.4   0.00   0.00 0.3723   0.040   0.008   0.003   0.002   0.001   0.000   0.000   0.000   0.000   0.000      0      0      0       0       0   6.000  133.329
   15 114    38    37  17.009     1  0.409    193      0      0    177    330    330      0      0    0.0  0.000    136   0.00   0.00   1.00   0.00   0.00   0.00   0.00   1.00   5.47  400.0   0.00      0    136    284.9   0.00   0.00 0.3849   0.041   0.008   0.003   0.002   0.001   0.000   0.000   0.000   0.000   0.000      0      0      0       0       0   9.000  140.172
   15 115    39    38  17.430     1  0.462    212      0      0    192    368    368      0      0    0.0  0.000    155   0.00   0.00   1.00   0.00   0.00   0.00   0.00   1.00   5.42  400.0   0.00      0    155    284.3   0.00   0.00 0.4002   0.043   0.009   0.004   0.003   0.001   0.000   0.000   0.000   0.000   0.000      0      0      0       0       0  11.000  148.598
   15 116    40    39  18.006     1  0.544    241      0      0    214    425    425      0      0    0.0  0.000    184   0.00   0.00   1.00   0.00   0.00   0.00   0.00   1.00   5.18  400.0   0.00      0    184    283.5   0.00   0.00 0.4189   0.044   0.009   0.005   0.003   0.001   0.000   0.000   0.000   0.000   0.000      0      0      0       0       0  15.000  160.127
   15 117    41    40  18.547     1  0.631    272      0      0    252    487    487      0      0    0.0  0.000    215   0.00   0.00   1.00   0.04   0.00   0.00   0.00   1.00   5.30  400.0   0.00      0    215    282.8   0.00   0.00 0.4364   0.045   0.010   0.005   0.003   0.002   0.000   0.000   0.000   0.000   0.000      0      0      0       0       0  14.000  170.933
   15 118    42    41  18.859     1  0.676    288      0      0    269    519    519      0      0    0.0  0.000    231   0.00   0.00   1.00   0.00   0.00   0.00   0.00   1.00   5.31  400.0   0.00      0    231    282.4   0.00   0.00 0.4463   0.047   0.011   0.006   0.004   0.002   0.000   0.000   0.000   0.000   0.000      0      0      0       0       0   8.000  177.174
   15 119    43    42  19.115     1  0.708    299      0      0    289    541    541      0      0    0.0  0.000    242   0.00   0.00   1.00   0.00   0.00   0.00   0.00   1.00   5.26  400.0   0.00      0    242    282.1   0.00   0.00 0.4544   0.047   0.012   0.006   0.004   0.002   0.001   0.000   0.000   0.000   0.000      0      0      0       0       0   6.500  182.304
   15 120    44    43  19.513     1  0.776    323      0      0    335    590    590      0      0    0.0  0.000    266   0.00   0.00   1.00   0.00   0.00   0.00   0.00   1.00   5.21  400.0   0.00      0    266    281.6   0.00   0.00 0.4669   0.048   0.012   0.006   0.004   0.003   0.001   0.000   0.000   0.000   0.000      0      0      0       0       0  10.000  190.262
   15 121    45    44  19.835     1  0.823    340      0      0    354    624    624      0      0    0.0  0.000    283   0.00   0.00   1.00   0.00   0.00   0.00   0.00   1.00   5.15  400.0   0.00      0    283    281.2   0.00   0.00 0.4769   0.049   0.013   0.008   0.005   0.004   0.001   0.000   0.000   0.000   0.000      0      0      0       0       0   8.000  196.694
   15 122    46    45  20.240     1  0.894    365      0      0    388    674    674      0      0    0.0  0.000    308   0.00   0.00   1.00   0.00   0.00   0.00   0.00   1.00   5.00  400.0   0.00      0    308    280.8   0.00   0.00 0.4894   0.049   0.014   0.009   0.006   0.004   0.002   0.000   0.000   0.000   0.000      0      0      0       0       0  10.000  204.801
   15 123    47    46  20.770     1  0.977    395      0      0    410    733    733      0      0    0.0  0.000    338   0.00   0.00   1.00   0.01   0.00   0.00   0.00   1.00   4.75  400.0   0.00      0    338    280.2   0.00   0.00 0.5056   0.048   0.014   0.010   0.007   0.005   0.002   0.000   0.000   0.000   0.000      0      0      0       0       0  13.000  215.394
   15 124    48    47  21.463     1  1.094    437      0      0    457    817    817      0      0    0.0  0.000    380   0.00   0.00   1.00   0.09   0.00   0.00   0.00   1.00   4.48  400.0   0.00      0    380    279.5   0.00   0.00 0.5243   0.048   0.014   0.010   0.007   0.005   0.003   0.000   0.000   0.000   0.000      0      0      0       0       0  17.000  229.260
   15 125    49    48  22.217     1  1.209    478      0      0    487    899    899      0      0    0.0  0.000    421   0.00   0.00   1.00   0.17   0.00   0.00   0.00   1.00   4.26  400.0   0.00      0    421    278.8   0.00   0.00 0.5446   0.048   0.015   0.011   0.008   0.006   0.004   0.001   0.000   0.000   0.000      0      0      0       0       0  18.500  244.350
   15 126    50    49  22.669     1  1.275    502      0      0    530    947    947      0      0    0.0  0.000    445   0.00   0.00   1.00   0.24   0.00   0.00   0.00   1.00   4.13  400.0   0.00      0    445    278.5   0.00   0.00 0.5567   0.049   0.015   0.011   0.009   0.007   0.005   0.001   0.000   0.000   0.000      0      0      0       0       0  11.000  253.386
   15 127    51    50  23.206     1  1.352    529      0      0    580   1002   1002      0      0    0.0  0.000    472   0.00   0.00   1.00   0.28   0.00   0.00   0.00   1.00   4.03  400.0   0.00      0    472    278.0   0.00   0.00 0.5710   0.049   0.016   0.012   0.009   0.008   0.006   0.002   0.000   0.000   0.000      0      0      0       0       0  13.000  264.119
   15 128    52    51  23.827     1  1.439    561      0      0    637   1065   1065      0      0    0.0  0.000    504   0.00   0.00   1.00   0.30   0.00   0.00   0.00   1.00   3.92  400.0   0.00      0    504    277.5   0.00   0.00 0.5875   0.049   0.016   0.013   0.010   0.009   0.007   0.003   0.000   0.000   0.000      0      0      0       0       0  15.000  276.540
   15 129    53    52  24.389     1  1.517    589      0      0    687   1121   1121      0      0    0.0  0.000    532   0.00   0.00   1.00   0.32   0.00   0.00   0.00   1.00   3.85  400.0   0.00      0    532    277.1   0.00   0.00 0.6024   0.050   0.017   0.014   0.011   0.009   0.008   0.004   0.000   0.000   0.000      0      0      0       0       0  13.500  287.770
   15 130    54    53  24.932     1  1.591    616      0      0    734   1175   1175      0      0    0.0  0.000    559   0.00   0.00   1.00   0.34   0.00   0.00   0.00   1.00   3.79  400.0   0.00      0    559    276.7   0.00   0.00 0.6158   0.051   0.018   0.014   0.012   0.010   0.008   0.006   0.000   0.000   0.000      0      0      0       0       0  13.000  298.638
   15 131    55    54  25.478     1  1.666    643      0      0    781   1229   1229      0      0    0.0  0.000    586   0.00   0.00   1.00   0.35   0.00   0.00   0.00   1.00   3.71  400.0   0.00      0    586    276.4   0.00   0.00 0.6293   0.052   0.019   0.015   0.012   0.011   0.009   0.006   0.001   0.000   0.000      0      0      0       0       0  13.000  309.559
   15 132    56    55  26.212     1  1.768    680      0      0    847   1303   1303      0      0    0.0  0.000    623   0.00   0.00   1.00   0.36   0.00   0.00   0.00   1.00   3.58  400.0   0.00      0    623    275.9   0.00   0.00 0.6473   0.052   0.020   0.016   0.013   0.011   0.009   0.007   0.001   0.000   0.000      0      0      0       0       0  17.474  324.246
   15 133    57    56  26.948     1  1.867    716      0      0    910   1374   1374      0      0    0.0  0.000    658   0.00   0.00   1.00   0.39   0.00   0.00   0.00   1.00   3.46  400.0   0.00      0    658    275.5   0.00   0.00 0.6654   0.053   0.021   0.017   0.014   0.012   0.010   0.008   0.003   0.000   0.000      0      0      0       0       0  17.500  338.962
   15 134    58    57  27.560     1  1.945    744      0      0    957   1431   1431      0      0    0.0  0.000    687   0.00   0.00   1.00   0.43   0.00   0.00   0.00   1.00   3.39  400.0   0.00      0    687    275.2   0.00   0.00 0.6804   0.054   0.022   0.018   0.015   0.013   0.011   0.008   0.004   0.000   0.000      0      0      0       0       0  14.500  351.198
   15 135    59    58  28.027     1  2.003    765      0      0    990   1474   1474      0      0    0.0  0.000    708   0.00   0.00   1.00   0.45   0.00   0.00   0.00   1.00   3.35  400.0   0.00      0    708    274.9   0.00   0.00 0.6918   0.055   0.023   0.019   0.016   0.014   0.011   0.009   0.005   0.000   0.000      0      0      0       0       0  11.000  360.544
   15 136    60    59  28.540     1  2.067    788      0      0   1027   1520   1520      0      0    0.0  0.000    731   0.00   0.00   1.00   0.45   0.00   0.00   0.00   1.00   3.29  400.0   0.00      0    731    274.7   0.00   0.00 0.7042   0.055   0.023   0.019   0.016   0.014   0.012   0.009   0.006   0.000   0.000      0      0      0       0       0  12.000  370.799
   15 137    61    60  29.119     1  2.139    815      0      0   1069   1573   1573      0      0    0.0  0.000    757   0.00   0.00   1.00   0.46   0.00   0.00   0.00   1.00   3.23  400.0   0.00      0    757    274.4   0.00   0.00 0.7164   0.055   0.024   0.020   0.016   0.014   0.012   0.010   0.007   0.000   0.000      0      0      0       0       0  13.500  382.387
   15 138    62    61  29.765     1  2.218    844      0      0   1116   1631   1631      0      0    0.0  0.000    786   0.00   0.00   1.00   0.47   0.00   0.00   0.00   1.00   3.15  400.0   0.00      0    786    274.2   0.00   0.00 0.7299   0.056   0.025   0.020   0.017   0.015   0.013   0.010   0.007   0.000   0.000      0      0      0       0       0  15.000  395.299
   15 139    63    62  30.252     2  2.315    879     14      0   1133   1714   1714      0      0    0.0  0.000    822   0.00   0.00   1.00   0.49   0.00   0.00   0.00   1.00   3.06  477.1   0.00      0    822    274.2   0.00   0.00 0.7421   0.057   0.025   0.021   0.018   0.016   0.013   0.011   0.008   0.001   0.000      0      0      0       0       0  13.500    6.971
   15 140    64    63  30.541     2  2.377    901     23      0   1140   1768   1768      0      0    0.0  0.000    844   0.00   0.00   1.00   0.54   0.00   0.00   0.00   1.00   3.02  501.0   0.00      0    844    274.2   0.00   0.00 0.7493   0.057   0.026   0.021   0.018   0.016   0.013   0.011   0.008   0.001   0.000      0      0      0       0       0   8.000   14.971
   15 141    65    64  30.884     2  2.460    932     36      0   1154   1843   1843      0      0    0.0  0.000    875   0.00   0.00   1.00   0.55   0.00   0.00   0.00   1.00   2.95  517.7   0.00      0    875    274.2   0.00   0.00 0.7579   0.056   0.026   0.022   0.018   0.016   0.013   0.011   0.008   0.001   0.000      0      0      0       0       0   9.500   24.471
   15 142    66    65  31.227     2  2.581    976     57      0   1180   1951   1951      0      0    0.0  0.000    919   0.00   0.00   1.00   0.58   0.00   0.00   0.00   1.00   2.84  531.8   0.00      0    919    274.2   0.00   0.00 0.7664   0.056   0.026   0.022   0.018   0.016   0.014   0.011   0.008   0.001   0.000      0      0      0       0       0   9.500   33.971
   15 143    67    66  31.624     2  2.667   1007     73      0   1197   2030   2030      0      0    0.0  0.000    950   0.00   0.00   1.00   0.63   0.00   0.00   0.00   1.00   2.78  541.0   0.00      0    950    274.2   0.00   0.00 0.7764   0.056   0.026   0.022   0.018   0.016   0.014   0.011   0.008   0.001   0.000      0      0      0       0       0  11.000   44.971
   15 144    68    67  32.039     2  2.735   1032     88      0   1208   2095   2095      0      0    0.0  0.000    975   0.00   0.00   1.00   0.66   0.00   0.00   0.00   1.00   2.74  544.8   0.00      0    975    274.2   0.00   0.00 0.7867   0.056   0.026   0.022   0.019   0.016   0.014   0.011   0.009   0.002   0.000      0      0      0       0       0  11.500   56.471
   15 145    69    68  32.545     2  2.815   1061    106      0   1224   2171   2171      0      0    0.0  0.000   1004   0.00   0.00   1.00   0.67   0.00   0.00   0.00   1.00   2.68  544.0   0.00      0   1004    274.2   0.00   0.00 0.7994   0.056   0.026   0.022   0.019   0.017   0.014   0.011   0.009   0.002   0.000      0      0      0       0       0  14.000   70.471
   15 146    70    69  32.960     2  2.878   1084    121      0   1234   2233   2233      0      0    0.0  0.000   1027   0.00   0.00   1.00   0.69   0.00   0.00   0.00   1.00   2.64  541.2   0.00      0   1027    274.2   0.00   0.00 0.8097   0.056   0.027   0.023   0.019   0.017   0.014   0.012   0.009   0.002   0.000      0      0      0       0       0  11.500   81.971
   15 147    71    70  33.285     2  2.929   1109    139      0   1246   2299   2299      0      0    0.0  0.000   1052   0.00   0.00   1.00   0.70   0.00   0.00   0.00   1.00   2.60  538.6   0.00      0   1052    274.2   0.00   0.00 0.8179   0.056   0.027   0.023   0.019   0.017   0.014   0.012   0.009   0.002   0.000      0      0      0       0       0   9.000   90.971
   15 148    72    71  33.700     2  3.011   1143    165      0   1269   2393   2393      0      0    0.0  0.000   1086   0.00   0.00   1.00   0.72   0.00   0.00   0.00   1.00   2.54  535.2   0.00      0   1086    274.2   0.00   0.00 0.8282   0.056   0.027   0.023   0.019   0.017   0.015   0.012   0.009   0.002   0.000      0      0      0       0       0  11.500  102.471
   15 149    73    72  34.242     2  3.070   1169    187      0   1285   2468   2468      0      0    0.0  0.000   1112   0.00   0.00   1.00   0.74   0.00   0.00   0.00   1.00   2.50  528.7   0.00      0   1112    274.2   0.00   0.00 0.8418   0.056   0.027   0.023   0.019   0.017   0.015   0.012   0.009   0.003   0.000      0      0      0       0       0  15.000  117.471
   15 150    74    73  34.766     2  3.114   1190    207      0   1295   2530   2530      0      0    0.0  0.000   1133   0.00   0.00   1.00   0.76   0.00   0.00   0.00   1.00   2.47  521.1   0.00      0   1133    274.2   0.00   0.00 0.8548   0.056   0.027   0.023   0.020   0.017   0.015   0.012   0.009   0.003   0.000      0      0      0       0       0  14.500  131.971
   15 151    75    74  35.307     2  3.169   1214    231      0   1310   2602   2602      0      0    0.0  0.000   1157   0.00   0.00   1.00   0.76   0.00   0.00   0.00   1.00   2.44  512.2   0.00      0   1157    274.2   0.00   0.00 0.8684   0.056   0.027   0.023   0.020   0.017   0.015   0.012   0.009   0.003   0.000      0      0      0       0       0  15.000  146.971
   15 152    76    75  35.975     2  3.218   1235    254      0   1322   2668   2668      0      0    0.0  0.000   1178   0.00   0.00   1.00   0.76   0.00   0.00   0.00   1.00   2.49  499.2   0.00      0   1178    274.2   0.00   0.00 0.8851   0.058   0.027   0.023   0.020   0.017   0.015   0.012   0.010   0.003   0.000      0      0      0       0       0  18.500  165.471
   15 153    77    76  36.661     2  3.288   1264    290      0   1343   2762   2762      0      0    0.0  0.000   1207   0.00   0.00   1.00   0.69   0.00   0.00   0.00   1.00   2.53  484.1   0.00      0   1207    274.2   0.00   0.00 0.9022   0.060   0.027   0.023   0.020   0.017   0.015   0.012   0.010   0.003   0.000      0      0      0       0       0  19.000  184.471
   15 154    78    77  37.379     2  3.378   1300    339      0   1372   2881   2881      0      0    0.0  0.000   1243   0.00   0.00   1.00   0.63   0.00   0.00   0.00   1.00   2.52  466.7   0.00      0   1243    274.2   0.00   0.00 0.9201   0.063   0.027   0.023   0.020   0.017   0.015   0.012   0.010   0.004   0.000      0      0      0       0       0  19.875  204.346
   15 155    79    78  38.065     2  3.358   1339    397      0   1406   3017   3017      0      0    0.0  0.000   1281   0.00   0.00   1.00   0.61   0.00   0.00   0.00   1.00   2.48  449.5   0.00      0   1281    274.2   0.00   0.00 0.9372   0.066   0.027   0.024   0.020   0.018   0.015   0.012   0.010   0.004   0.000      0      0      0       0       0  19.000  223.346
   15 156    80    79  38.836     2  3.361   1372    453      0   1436   3141   3141      0      0    0.0  0.000   1315   0.00   0.00   1.00   0.61   0.00   0.00   0.00   1.00   2.43  429.2   0.00      0   1315    274.2   0.00   0.00 0.9564   0.069   0.028   0.024   0.020   0.018   0.015   0.013   0.010   0.004   0.000      0      0      0       0       0  21.346  244.692
   15 157    81    80  39.595     2  3.358   1400    505      0   1460   3248   3248      0      0    0.0  0.000   1343   0.00   0.00   1.00   0.63   0.00   0.00   0.00   1.00   2.47  408.6   0.00      0   1343    274.2   0.00   0.00 0.9753   0.072   0.028   0.024   0.020   0.018   0.015   0.013   0.010   0.004   0.001      0      0      0       0       0  21.029  265.721
   15 158    82    81  40.354     2  3.398   1436    578      0   1495   3392   3392      0      0    0.0  0.000   1378   0.00   0.00   1.00   0.53   0.00   0.00   0.00   1.00   2.46  400.0   0.00      0   1378    274.2   0.00   0.00 0.9942   0.075   0.028   0.024   0.020   0.018   0.015   0.013   0.010   0.004   0.001      0      0      0       0       0  21.000  286.721
   15 159    83    82  40.932     2  3.411   1455    622      0   1507   3474   3474      0      0    0.0  0.000   1398   0.00   0.00   1.00   0.51   0.00   0.00   0.00   1.00   2.50  400.0   0.00      0   1398    274.2   0.00   0.00 1.0086   0.078   0.029   0.024   0.020   0.018   0.015   0.013   0.010   0.004   0.001      0      0      0       0       0  16.000  302.721
   15 160    84    83  41.365     2  3.436   1472    663      0   1516   3551   3551      0      0    0.0  0.000   1415   0.00   0.00   1.00   0.42   0.00   0.00   0.00   1.00   2.53  400.0   0.00      0   1415    274.2   0.00   0.00 1.0194   0.079   0.029   0.024   0.020   0.018   0.015   0.013   0.010   0.004   0.001      0      0      0       0       0  12.000  314.721
   15 161    85    84  41.889     2  3.495   1499    730      0   1537   3671   3671      0      0    0.0  0.000   1441   0.00   0.00   1.00   0.32   0.00   0.00   0.00   1.00   2.55  400.0   0.00      0   1441    274.2   0.00   0.00 1.0324   0.079   0.030   0.024   0.020   0.018   0.015   0.013   0.010   0.004   0.001      0      0      0       0       0  14.500  329.221
   15 162    86    85  42.539     2  3.491   1535    832      0   1572   3844   3844      0      0    0.0  0.000   1478   0.00   0.00   1.00   0.23   0.00   0.00   0.00   1.00   2.51  400.0   0.00      0   1478    274.2   0.00   0.00 1.0486   0.079   0.030   0.024   0.020   0.018   0.016   0.013   0.010   0.005   0.002      0      0      0       0       0  18.000  347.221
   15 163    87    86  43.473     3  3.366   1535   1060      0   1603   4072   4072      0      0    0.0  0.000   1478   0.00   0.00   1.00   0.20   0.00   0.00   0.00   1.00   2.51  400.0   0.00      0   1478    274.2   0.00   0.00 1.0665   0.079   0.030   0.024   0.021   0.018   0.016   0.013   0.011   0.005   0.003      0      0      0       0       0  19.875    7.096
   15 164    88    87  44.773     3  3.336   1535   1253      0   1627   4265   4265      0      0    0.0  0.000   1478   0.00   0.00   1.00   0.22   0.00   0.00   0.00   1.00   2.51  400.0   0.00      0   1478    274.2   0.00   0.00 1.0841   0.079   0.030   0.025   0.021   0.018   0.016   0.013   0.011   0.005   0.003      0      0      0       0       0  19.500   26.596
   15 165    89    88  46.073     3  3.306   1535   1465      0   1655   4478   4478      0      0    0.0  0.000   1478   0.00   0.00   1.00   0.21   0.00   0.00   0.00   1.00   2.51  400.0   0.00      0   1478    274.2   0.00   0.00 1.1016   0.078   0.031   0.025   0.021   0.019   0.016   0.013   0.011   0.005   0.004      0      0      0       0       0  19.500   46.096
   15 166    90    89  47.040     3  3.283   1535   1584      0   1663   4597   4597      0      0    0.0  0.000   1478   0.00   0.00   1.00   0.23   0.00   0.00   0.00   1.00   2.51  400.0   0.00      0   1478    274.2   0.00   0.00 1.1128   0.078   0.031   0.025   0.021   0.019   0.016   0.014   0.011   0.005   0.004      0      0      0       0       0  14.500   60.596
   15 167    91    90  48.040     3  3.261   1535   1772      0   1685   4784   4784      0      0    0.0  0.000   1478   0.00   0.00   1.00   0.20   0.00   0.00   0.00   1.00   2.51  400.0   0.00      0   1478    274.2   0.00   0.00 1.1244   0.078   0.031   0.025   0.021   0.019   0.016   0.014   0.011   0.005   0.005      0      0      0       0       0  15.000   75.596
   15 168    92    91  49.006     3  3.239   1535   1978      0   1710   4990   4990      0      0    0.0  0.000   1478   0.00   0.00   1.00   0.21   0.00   0.00   0.00   1.00   2.51  400.0   0.00      0   1478    274.2   0.00   0.00 1.1356   0.078   0.031   0.025   0.021   0.019   0.017   0.014   0.011   0.006   0.005      0      0      0       0       0  14.500   90.096
   15 169    93    92  49.873     3  3.219   1535   2087      0   1716   5100   5100      0      0    0.0  0.000   1478   0.00   0.00   1.00   0.24   0.00   0.00   0.00   1.00   2.51  400.0   0.00      0   1478    274.2   0.00   0.00 1.1456   0.077   0.031   0.025   0.022   0.019   0.017   0.014   0.011   0.006   0.005      0      0      0       0       0  13.000  103.096
   15 170    94    93  50.706     3  3.200   1535   2246      0   1732   5259   5259      0      0    0.0  0.000   1478   0.00   0.00   1.00   0.21   0.00   0.00   0.00   1.00   2.51  400.0   0.00      0   1478    274.2   0.00   0.00 1.1553   0.077   0.031   0.025   0.022   0.019   0.017   0.014   0.011   0.006   0.005      0      0      0       0       0  12.500  115.596
   15 171    95    94  51.506     3  3.181   1535   2397      0   1745   5410   5410      0      0    0.0  0.000   1478   0.00   0.00   1.00   0.21   0.00   0.00   0.00   1.00   2.51  400.0   0.00      0   1478    274.2   0.00   0.00 1.1645   0.077   0.031   0.026   0.022   0.019   0.017   0.014   0.012   0.006   0.005      0      0      0       0       0  12.000  127.596
   15 172    96    95  52.373     3  3.162   1535   2553      0   1760   5565   5565      0      0    0.0  0.000   1478   0.00   0.00   1.00   0.20   0.00   0.00   0.00   1.00   2.51  400.0   0.00      0   1478    274.2   0.00   0.00 1.1746   0.076   0.031   0.026   0.022   0.019   0.017   0.014   0.012   0.006   0.006      0      0      0       0       0  13.000  140.596
   15 173    97    96  53.406     3  3.140   1535   2712      0   1774   5724   5724      0      0    0.0  0.000   1478   0.00   0.00   1.00   0.18   0.00   0.00   0.00   1.00   2.51  400.0   0.00      0   1478    274.2   0.00   0.00 1.1866   0.076   0.031   0.026   0.022   0.020   0.017   0.014   0.012   0.006   0.006      0      0      0       0       0  15.500  156.096
   15 174    98    97  54.240     3  3.122   1535   2897      0   1794   5910   5910      0      0    0.0  0.000   1478   0.00   0.00   1.00   0.18   0.00   0.00   0.00   1.00   2.51  400.0   0.00      0   1478    274.2   0.00   0.00 1.1962   0.076   0.031   0.026   0.022   0.020   0.017   0.014   0.012   0.006   0.006      0      0      0       0       0  12.500  168.596
   15 175    99    98  55.140     3  3.102   1535   3106      0   1818   6119   6119      0      0    0.0  0.000   1478   0.00   0.00   1.00   0.18   0.00   0.00   0.00   1.00   2.51  400.0   0.00      0   1478    274.2   0.00   0.00 1.2066   0.076   0.032   0.026   0.022   0.020   0.017   0.014   0.012   0.007   0.006      0      0      0       0       0  13.500  182.096
   15 176   100    99  56.040     3  3.082   1535   3316      0   1843   6328   6328      0      0    0.0  0.000   1478   0.00   0.00   1.00   0.19   0.00   0.00   0.00   1.00   2.51  400.0   0.00      0   1478    274.2   0.00   0.00 1.2171   0.075   0.032   0.026   0.022   0.020   0.017   0.015   0.012   0.007   0.006      0      0      0       0       0  13.500  195.596
   15 177   101   100  57.106     3  3.059   1535   3535      0   1869   6547   6547      0      0    0.0  0.000   1478   0.00   0.00   1.00   0.19   0.00   0.00   0.00   1.00   2.51  400.0   0.00      0   1478    274.2   0.00   0.00 1.2294   0.075   0.032   0.027   0.023   0.020   0.018   0.015   0.012   0.007   0.006      0      0      0       0       0  16.000  211.596
   15 178   102   101  58.273     3  3.034   1535   3684      0   1880   6696   6696      0      0    0.0  0.000   1478   0.00   0.00   1.00   0.17   0.00   0.00   0.00   1.00   2.51  400.0   0.00      0   1478    274.2   0.00   0.00 1.2429   0.075   0.032   0.027   0.023   0.020   0.018   0.015   0.012   0.007   0.007      0      0      0       0       0  17.500  229.096
   15 179   103   102  59.495     4  3.034   1535   3905      0   1889   6917   6917      0      0    0.0  0.000   1478   0.00   0.00   1.00   0.12   0.00   0.00   0.00   1.00   2.51  400.0   0.00      0   1478    274.2   0.00   0.00 1.2564   0.075   0.032   0.027   0.023   0.020   0.018   0.015   0.013   0.007   0.007      0      0      0       0       0  17.500    6.596
   15 180   104   103  60.882     4  2.993   1535   4114      0   1895   7126   7126      0      0    0.0  0.000   1478   0.00   0.00   1.00   0.05   0.00   0.00   0.00   1.00   2.51  400.0   0.00      0   1478    274.2   0.00   0.00 1.2707   0.074   0.032   0.027   0.023   0.020   0.018   0.015   0.013   0.007   0.007      0      0      0       0       0  18.500   25.096
   15 181   105   104  62.400     4  2.951   1535   4327      0   1900   7339   7339      0      0    0.0  0.000   1478   0.00   0.00   1.00   0.00   0.00   0.00   0.00   1.00   2.51  400.0   0.00      0   1478    274.2   0.00   0.00 1.2863   0.074   0.032   0.027   0.023   0.020   0.018   0.015   0.013   0.007   0.007      0      0      0       0       0  20.235   45.332
   15 182   106   105  63.927     4  2.906   1535   4548      0   1905   7560   7560      0      0    0.0  0.000   1478   0.00   0.00   1.00   0.00   0.00   0.00   0.00   1.00   2.51  400.0   0.00      0   1478    274.2   0.00   0.00 1.3021   0.074   0.032   0.027   0.023   0.020   0.018   0.015   0.013   0.007   0.007      0      0      0       0       0  20.367   65.698
   15 183   107   106  65.287     4  2.860   1535   4764      0   1910   7776   7776      0      0    0.0  0.000   1478   0.00   0.00   1.00   0.00   0.00   0.00   0.00   1.00   2.51  400.0   0.00      0   1478    274.2   0.00   0.00 1.3172   0.074   0.032   0.027   0.023   0.020   0.018   0.015   0.013   0.007   0.007      0      0      0       0       0  21.200   86.898
   15 184   108   107  66.194     4  2.813   1535   4936      0   1910   7949   7949      0      0    0.0  0.000   1478   0.00   0.00   1.00   0.00   0.00   0.00   0.00   1.00   2.51  400.0   0.00      0   1478    274.2   0.00   0.00 1.3328   0.073   0.032   0.027   0.023   0.020   0.018   0.015   0.013   0.008   0.007      0      0      0       0       0  21.765  108.663
   15 185   109   108  67.147     4  2.764   1535   5112      0   1911   8125   8125      0      0    0.0  0.000   1478   0.00   0.00   1.00   0.00   0.00   0.00   0.00   1.00   2.51  400.0   0.00      0   1478    274.2   0.00   0.00 1.3492   0.072   0.032   0.027   0.023   0.020   0.018   0.015   0.013   0.008   0.007      0      0      0       0       0  22.875  131.538
   15 186   110   109  68.125     4  2.713   1535   5275      0   1909   8287   8287      0      0    0.0  0.000   1478   0.00   0.00   1.00   0.00   0.00   0.00   0.00   1.00   2.51  400.0   0.00      0   1478    274.2   0.00   0.00 1.3659   0.071   0.032   0.027   0.023   0.020   0.018   0.015   0.013   0.008   0.007      0      0      0       0       0  23.469  155.007
   15 187   111   110  69.055     4  2.660   1535   5456      0   1911   8469   8469      0      0    0.0  0.000   1478   0.00   0.00   1.00   0.00   0.00   0.00   0.00   1.00   2.51  400.0   0.00      0   1478    274.2   0.00   0.00 1.3819   0.071   0.032   0.027   0.023   0.020   0.018   0.015   0.013   0.008   0.007      0      0      0       0       0  22.318  177.325
   15 188   112   111  70.011     5  2.610   1535   4837    769   1903   7849   8618  13913  13913    5.5  0.089   1478   0.00   0.00   1.00   0.00   0.00   0.00   0.00   1.00   2.26  400.0   0.00      0   1478    274.2   0.00   0.00 1.3984   0.072   0.032   0.026   0.023   0.020   0.018   0.015   0.013   0.008   0.007      0      0      0       0       0  23.059    0.384
   15 189   113   112  70.497     5  2.610   1535   4711   1050   1894   7723   8773  13913  13913    7.5  0.120   1478   0.00   0.00   1.00   0.00   0.00   0.00   0.00   1.00   2.11  400.0   0.00      0   1478    274.2   0.00   0.00 1.4105   0.072   0.031   0.026   0.022   0.020   0.018   0.015   0.013   0.008   0.007      0      0      0       0       0  17.000   17.384
   15 190   114   113  70.882     5  2.606   1535   4623   1297   1885   7635   8932  13913  13913    9.3  0.145   1478   0.00   0.00   1.00   0.00   0.00   0.00   0.00   1.00   1.98  400.0   0.00      0   1478    274.2   0.00   0.00 1.4202   0.072   0.031   0.026   0.022   0.020   0.017   0.015   0.012   0.008   0.007      0      0      0       0       0  13.500   30.884
   15 191   115   114  71.297     5  2.602   1535   4598   1547   1878   7610   9157  13913  13913   11.1  0.169   1478   0.00   0.00   1.00   0.00   0.00   0.00   0.00   1.00   1.85  400.0   0.00      0   1478    274.2   0.00   0.00 1.4306   0.072   0.031   0.026   0.022   0.020   0.017   0.015   0.012   0.007   0.007      0      0      0       0       0  14.500   45.384
   15 192   116   115  71.808     5  2.595   1535   4552   1787   1869   7564   9351  13913  13913   12.8  0.191   1478   0.00   0.00   1.00   0.00   0.00   0.00   0.00   1.00   1.70  400.0   0.00      0   1478    274.2   0.00   0.00 1.4433   0.072   0.031   0.026   0.022   0.020   0.017   0.015   0.012   0.007   0.007      0      0      0       0       0  17.900   63.284
   15 193   117   116  72.379     5  2.583   1535   4446   2073   1859   7458   9531  13913  13913   14.9  0.218   1478   0.00   0.13   1.00   0.00   0.00   0.00   0.00   1.00   1.55  400.0   0.00      0   1478    274.2   0.00   0.00 1.4576   0.072   0.031   0.026   0.022   0.019   0.017   0.014   0.012   0.007   0.007      0      0      0       0       0  19.964   83.248
   15 194   118   117  72.893     5  2.565   1535   4270   2360   1844   7283   9643  13913  13913   17.0  0.245   1478   0.00   0.19   1.00   0.00   0.00   0.00   0.00   1.00   1.42  400.0   0.00      0   1478    274.2   0.00   0.00 1.4705   0.072   0.030   0.025   0.022   0.019   0.017   0.014   0.012   0.007   0.007      0      0      0       0       0  18.000  101.248
   15 195   119   118  73.464     5  2.546   1535   4100   2674   1830   7113   9786  13913  13913   19.2  0.273   1478   0.00   0.22   1.00   0.00   0.00   0.00   0.00   1.00   1.29  400.0   0.00      0   1478    274.2   0.00   0.00 1.4848   0.071   0.030   0.025   0.021   0.019   0.017   0.014   0.012   0.007   0.007      0      0      0       0       0  20.000  121.248
   15 196   120   119  74.077     5  2.520   1535   3963   2984   1814   6975   9959  13913  13913   21.4  0.300   1478   0.00   0.28   1.00   0.00   0.00   0.00   0.00   1.00   1.16  400.0   0.00      0   1478    274.2   0.00   0.00 1.5001   0.071   0.030   0.025   0.021   0.019   0.017   0.014   0.012   0.007   0.007      0      0      0       0       0  21.455  142.703
   15 197   121   120  74.686     5  2.487   1535   3963   3154   1795   6975  10129  13913  13913   22.7  0.311   1478   0.00   0.36   1.00   0.00   0.00   0.00   0.00   1.00   1.02  400.0   0.00      0   1478    274.2   0.00   0.00 1.5123   0.070   0.030   0.025   0.021   0.019   0.016   0.014   0.012   0.007   0.007      0      0      0       0       0  21.306  164.008
   15 198   122   121  75.333     5  2.450   1535   3963   3291   1777   6975  10266  13913  13913   23.7  0.321   1478   0.00   0.46   1.00   0.00   0.00   0.00   0.00   1.00   0.87  400.0   0.00      0   1478    274.2   0.00   0.00 1.5252   0.069   0.029   0.024   0.021   0.019   0.016   0.014   0.012   0.007   0.007      0      0      0       0       0  22.639  186.647
   15 199   123   122  75.938     5  2.405   1535   3963   3418   1760   6975  10393  13913  13913   24.6  0.329   1478   0.00   0.54   1.00   0.00   0.00   0.00   0.00   1.00   0.76  400.0   0.00      0   1478    274.2   0.00   0.00 1.5373   0.069   0.029   0.024   0.021   0.018   0.016   0.014   0.012   0.007   0.007      0      0      0       0       0  21.200  207.847
   15 200   124   123  76.562     5  2.358   1535   3963   3544   1742   6975  10519  13913  13913   25.5  0.337   1478   0.00   0.59   1.00   0.00   0.00   0.00   0.00   1.00   0.69  400.0   0.00      0   1478    274.2   0.00   0.00 1.5497   0.068   0.029   0.024   0.020   0.018   0.016   0.013   0.011   0.007   0.007      0      0      0       0       0  21.833  229.680
   15 201   125   124  77.214     5  2.305   1535   3963   3679   1725   6975  10654  13913  13913   26.4  0.345   1478   0.00   0.62   1.00   0.00   0.00   0.00   0.00   1.00   0.63  400.0   0.00      0   1478    274.2   0.00   0.00 1.5627   0.067   0.028   0.024   0.020   0.018   0.016   0.013   0.011   0.007   0.006      0      0      0       0       0  22.800  252.480
   15 202   126   125  77.867     5  2.244   1535   3963   3818   1707   6975  10793  13913  13913   27.4  0.354   1478   0.00   0.65   1.00   0.00   0.00   0.00   0.00   1.00   0.59  400.0   0.00      0   1478    274.2   0.00   0.00 1.5757   0.067   0.028   0.023   0.020   0.018   0.016   0.013   0.011   0.007   0.006      0      0      0       0       0  22.875  275.355
   15 203   127   126  78.519     5  2.176   1535   3963   3936   1690   6975  10911  13913  13913   28.3  0.361   1478   0.05   0.71   1.00   0.00   0.00   0.00   0.00   1.00   0.56  400.0   0.00      0   1478    274.2   0.00   0.00 1.5887   0.066   0.028   0.023   0.020   0.018   0.015   0.013   0.011   0.007   0.006      0      0      0       0       0  22.816  298.171
   15 204   128   127  79.119     5  2.104   1535   3963   4029   1673   6975  11004  13913  13913   29.0  0.366   1478   0.12   0.77   1.00   0.00   0.00   0.00   0.00   1.00   0.53  400.0   0.00      0   1478    274.2   0.00   0.00 1.6007   0.065   0.028   0.023   0.020   0.018   0.015   0.013   0.011   0.007   0.006      0      0      0       0       0  21.000  319.171
   15 205   129   128  79.725     5  2.033   1535   3963   4145   1657   6975  11121  13913  13913   29.8  0.373   1478   0.12   0.77   1.00   0.00   0.00   0.00   0.00   1.00   0.51  400.0   0.00      0   1478    274.2   0.00   0.00 1.6128   0.065   0.027   0.023   0.019   0.017   0.015   0.013   0.011   0.007   0.006      0      0      0       0       0  21.200  340.371
   15 206   130   129  80.253     5  1.956   1535   3963   4266   1640   6975  11241  13913  13913   30.7  0.379   1478   0.16   0.80   1.00   0.00   0.00   0.00   0.00   1.00   0.50  400.0   0.00      0   1478    274.2   0.00   0.00 1.6233   0.064   0.027   0.022   0.019   0.017   0.015   0.013   0.011   0.007   0.006      0      0      0       0       0  18.500  358.871
   15 207   131   130  80.696     5  1.885   1535   3982   4380   1624   6994  11374  13913  13913   31.5  0.385   1478   0.19   0.82   1.00   0.00   0.00   0.00   0.00   1.00   0.48  400.0   0.00      0   1478    274.2   0.00   0.00 1.6321   0.063   0.027   0.022   0.019   0.017   0.015   0.013   0.011   0.006   0.006      0      0      0       0       0  15.500  374.371
   15 208   132   131  81.196     5  1.823   1535   3989   4483   1608   7001  11485  13913  13913   32.2  0.390   1478   0.15   0.79   1.00   0.00   0.00   0.00   0.00   1.00   0.47  400.0   0.00      0   1478    274.2   0.00   0.00 1.6421   0.063   0.026   0.022   0.019   0.017   0.015   0.012   0.011   0.006   0.006      0      0      0       0       0  17.500  391.871
   15 209   133   132  81.682     5  1.750   1535   3983   4587   1592   6995  11582  13913  13913   33.0  0.396   1478   0.17   0.80   1.00   0.00   0.00   0.00   0.00   1.00   0.45  400.0   0.00      0   1478    274.2   0.00   0.00 1.6518   0.062   0.026   0.022   0.019   0.017   0.015   0.012   0.010   0.006   0.006      0      0      0       0       0  17.000  408.871
   15 210   134   133  82.096     5  1.676   1535   3963   4684   1576   6976  11660  13913  13913   33.7  0.402   1478   0.15   0.79   1.00   0.00   0.00   0.00   0.00   1.00   0.44  400.0   0.00      0   1478    274.2   0.00   0.00 1.6601   0.061   0.026   0.022   0.018   0.016   0.014   0.012   0.010   0.006   0.006      0      0      0       0       0  14.500  423.371
   15 211   135   134  82.496     5  1.611   1535   3976   4777   1560   6988  11765  13913  13913   34.3  0.406   1478   0.17   0.81   1.00   0.00   0.00   0.00   0.00   1.00   0.43  400.0   0.00      0   1478    274.2   0.00   0.00 1.6680   0.061   0.026   0.021   0.018   0.016   0.014   0.012   0.010   0.006   0.006      0      0      0       0       0  14.000  437.371
   15 212   136   135  82.953     5  1.545   1535   4002   4864   1545   7015  11879  13913  13913   35.0  0.409   1478   0.16   0.80   1.00   0.00   0.00   0.00   0.00   1.00   0.42  400.0   0.00      0   1478    274.2   0.00   0.00 1.6772   0.060   0.025   0.021   0.018   0.016   0.014   0.012   0.010   0.006   0.006      0      0      0       0       0  16.000  453.371
   15 213   137   136  83.425     5  1.468   1535   3982   4947   1530   6994  11941  13913  13913   35.6  0.414   1478   0.15   0.79   1.00   0.00   0.00   0.00   0.00   1.00   0.41  400.0   0.00      0   1478    274.2   0.00   0.00 1.6866   0.060   0.025   0.021   0.018   0.016   0.014   0.012   0.010   0.006   0.006      0      0      0       0       0  16.500  469.871
   15 214   138   137  83.953     5  1.386   1535   3982   5033   1514   6995  12028  13913  13913   36.2  0.418   1478   0.14   0.78   1.00   0.00   0.00   0.00   0.00   1.00   0.40  400.0   0.00      0   1478    274.2   0.00   0.00 1.6971   0.059   0.025   0.021   0.018   0.016   0.014   0.012   0.010   0.006   0.006      0      0      0       0       0  18.500  488.371
   15 215   139   138  84.507     5  1.289   1535   3990   5122   1499   7002  12124  13913  13913   36.8  0.422   1478   0.12   0.77   1.00   0.00   0.00   0.00   0.00   1.00   0.39  400.0   0.00      0   1478    274.2   0.00   0.00 1.7081   0.058   0.025   0.021   0.018   0.016   0.014   0.012   0.010   0.006   0.006      0      0      0       0       0  19.382  507.754
   15 216   140   139  85.103     5  1.185   1535   3971   5213   1485   6983  12196  13913  13913   37.5  0.427   1478   0.11   0.76   1.35   0.00   0.00   0.00   0.00   1.00   0.37  400.0   0.00      0   1478    274.2   0.00   0.00 1.7179   0.058   0.024   0.020   0.017   0.016   0.014   0.011   0.010   0.006   0.006      0      0      0       0       0  20.842  528.596
   15 217   141   140  85.695     5  1.026   1535   3963   5296   1470   6975  12271  13913  13913   38.1  0.432   1478   0.10   0.75   1.00   0.00   0.00   0.00   0.00   1.00   0.36  400.0   0.00      0   1478    274.2   0.00   0.00 1.7276   0.057   0.024   0.020   0.017   0.015   0.013   0.011   0.010   0.006   0.005      0      0      0       0       0  20.719  549.314
   15 218   142   141  86.317     5  0.905   1535   3963   5356   1455   6975  12331  13913  13913   38.5  0.434   1478   0.09   0.74   1.93   0.00   0.00   0.00   0.00   1.00   0.35  400.0   0.00      0   1478    274.2   0.00   0.00 1.7378   0.057   0.024   0.020   0.017   0.015   0.013   0.011   0.010   0.006   0.005      0      0      0       0       0  21.775  571.089
   15 219   143   142  86.961     5  0.649   1535   3963   5396   1441   6975  12371  13913  13913   38.8  0.436   1478   0.08   0.73   2.49   0.01   0.00   0.00   0.00   1.00   0.34  400.0   0.00      0   1478    274.2   0.00   0.00 1.7484   0.056   0.024   0.020   0.017   0.015   0.013   0.011   0.009   0.006   0.005      0      0      0       0       0  22.551  593.640
   15 220   144   143  87.613     5  0.294   1535   3963   5416   1426   6975  12391  13913  13913   38.9  0.437   1478   0.07   0.72   2.18   0.09   0.00   0.00   0.00   1.00   0.33  400.0   0.00      0   1478    274.2   0.00   0.00 1.7591   0.056   0.023   0.020   0.017   0.015   0.013   0.011   0.009   0.006   0.005      0      0      0       0       0  22.816  616.456
   15 221   145   144  88.272     5  0.000   1535   3963   5416   1412   6975  12391  13913  13913   38.9  0.437   1478   0.05   0.71   1.88   0.11   0.00   0.00   0.00   1.00   0.33  400.0   0.00      0   1478    274.2   0.00   0.00 1.7699   0.055   0.023   0.019   0.017   0.015   0.013   0.011   0.009   0.006   0.005      0      0      0       0       0  23.059  639.515
   15 222   146   145  88.926     5  0.000   1535   3963   5416   1398   6976  12391  13913  13913   38.9  0.437   1478   0.04   0.70   1.01   0.00   0.00   0.00   0.00   1.00   0.33  400.0   0.00      0   1478    274.2   0.00   0.00 1.7806   0.054   0.023   0.019   0.016   0.015   0.013   0.011   0.009   0.006   0.005      0      0      0       0       0  22.885  662.400
   15 223   147   146  89.573     5  0.000   1535   3964   5416   1384   6976  12392  13913  13913   38.9  0.437   1478   0.03   0.69   1.31   0.00   0.00   0.00   0.00   1.00   0.33  400.0   0.00      0   1478    274.2   0.00   0.00 1.7912   0.054   0.023   0.019   0.016   0.014   0.013   0.011   0.009   0.006   0.005      0      0      0       0       0  22.667  685.066
   15 224   148   147  90.000     6  0.000   1535   3964   5416   1370   6976  12392  13913  13913   38.9  0.437   1478   0.03   0.69   1.91   0.00   0.00   0.00   0.00   1.00   0.33  400.0   0.00      0   1478    274.2   0.00   0.00 1.7912   0.053   0.022   0.019   0.016   0.014   0.013   0.011   0.009   0.005   0.005      0      0      0       0       0  22.211    7.277
   15 225   149   148  90.000     7  0.000   1535   3964   5416   1370   6976  12392  13913  13913   38.9  0.437   1478   0.03   0.69   1.91   0.00   0.00   0.00   0.00   1.00   0.33  400.0   0.00      0   1478    274.2   0.00   0.00 1.7912   0.053   0.022   0.019   0.016   0.014   0.013   0.011   0.009   0.005   0.005      0      0      0       0       0  22.211    7.000
   15 226   150   149  90.000     7  0.000   1535   3964   5416   1370   6976  12392  13913  13913   38.9  0.437   1478   0.03   0.69   1.91   0.00   0.00   0.00   0.00   1.00   0.33  400.0   0.00      0   1478    274.2   0.00   0.00 1.7912   0.053   0.022   0.019   0.016   0.014   0.013   0.011   0.009   0.005   0.005      0      0      0       0       0  22.211    7.000
   15 227   151   150  90.000     7  0.000   1535   3964   5416   1370   6976  12392  13913  13913   38.9  0.437   1478   0.03   0.69   1.91   0.00   0.00   0.00   0.00   1.00   0.33  400.0   0.00      0   1478    274.2   0.00   0.00 1.7912   0.053   0.022   0.019   0.016   0.014   0.013   0.011   0.009   0.005   0.005      0      0      0       0       0  22.211    7.000
   15 228   152   151  90.000     7  0.000   1535   3964   5416   1370   6976  12392  13913  13913   38.9  0.437   1478   0.03   0.69   1.91   0.00   0.00   0.00   0.00   1.00   0.33  400.0   0.00      0   1478    274.2   0.00   0.00 1.7912   0.053   0.022   0.019   0.016   0.014   0.013   0.011   0.009   0.005   0.005      0      0      0       0       0  22.211    7.000
   15 229   153   152  90.000     7  0.000   1535   3964   5416   1370   6976  12392  13913  13913   38.9  0.437   1478   0.03   0.69   1.91   0.00   0.00   0.00   0.00   1.00   0.33  400.0   0.00      0   1478    274.2   0.00   0.00 1.7912   0.053   0.022   0.019   0.016   0.014   0.013   0.011   0.009   0.005   0.005      0      0      0       0       0  22.211    7.000
   15 230   154   153  90.000     7  0.000   1535   3964   5416   1370   6976  12392  13913  13913   38.9  0.437   1478   0.03   0.69   1.91   0.00   0.00   0.00   0.00   1.00   0.33  400.0   0.00      0   1478    274.2   0.00   0.00 1.7912   0.053   0.022   0.019   0.016   0.014   0.013   0.011   0.009   0.005   0.005      0      0      0       0       0  22.211    7.000
   15 231   155   154  90.000     7  0.000   1535   3964   5416   1370   6976  12392  13913  13913   38.9  0.437   1478   0.03   0.69   1.91   0.00   0.00   0.00   0.00   1.00   0.33  400.0   0.00      0   1478    274.2   0.00   0.00 1.7912   0.053   0.022   0.019   0.016   0.014   0.013   0.011   0.009   0.005   0.005      0      0      0       0       0  22.211    7.000
   15 232   156   155  90.000     7  0.000   1535   3964   5416   1370   6976  12392  13913  13913   38.9  0.437   1478   0.03   0.69   1.91   0.00   0.00   0.00   0.00   1.00   0.33  400.0   0.00      0   1478    274.2   0.00   0.00 1.7912   0.053   0.022   0.019   0.016   0.014   0.013   0.011   0.009   0.005   0.005      0      0      0       0       0  22.211    7.000
   15 233   157   156  90.000     7  0.000   1535   3964   5416   1370   6976  12392  13913  13913   38.9  0.437   1478   0.03   0.69   1.91   0.00   0.00   0.00   0.00   1.00   0.33  400.0   0.00      0   1478    274.2   0.00   0.00 1.7912   0.053   0.022   0.019   0.016   0.014   0.013   0.011   0.009   0.005   0.005      0      0      0       0       0  22.211    7.000
   15 234   158   157  90.000     7  0.000   1535   3964   5416   1370   6976  12392  13913  13913   38.9  0.437   1478   0.03   0.69   1.91   0.00   0.00   0.00   0.00   1.00   0.33  400.0   0.00      0   1478    274.2   0.00   0.00 1.7912   0.053   0.022   0.019   0.016   0.014   0.013   0.011   0.009   0.005   0.005      0      0      0       0       0  22.211    7.000
   15 235   159   158  90.000     7  0.000   1535   3964   5416   1370   6976  12392  13913  13913   38.9  0.437   1478   0.03   0.69   1.91   0.00   0.00   0.00   0.00   1.00   0.33  400.0   0.00      0   1478    274.2   0.00   0.00 1.7912   0.053   0.022   0.019   0.016   0.014   0.013   0.011   0.009   0.005   0.005      0      0      0       0       0  22.211    7.000
   15 236   160   159  90.000     7  0.000   1535   3964   5416   1370   6976  12392  13913  13913   38.9  0.437   1478   0.03   0.69   1.91   0.00   0.00   0.00   0.00   1.00   0.33  400.0   0.00      0   1478    274.2   0.00   0.00 1.7912   0.053   0.022   0.019   0.016   0.014   0.013   0.011   0.009   0.005   0.005      0      0      0       0       0  22.211    7.000
   15 237   161   160  90.000     7  0.000   1535   3964   5416   1370   6976  12392  13913  13913   38.9  0.437   1478   0.03   0.69   1.91   0.00   0.00   0.00   0.00   1.00   0.33  400.0   0.00      0   1478    274.2   0.00   0.00 1.7912   0.053   0.022   0.019   0.016   0.014   0.013   0.011   0.009   0.005   0.005      0      0      0       0       0  22.211    7.000

*DSSAT Cropping System Model Ver. 4.8.5.000 -release  NOV 27, 2025 15:48:13

*RUN   2        : 2                         WHAPS048 TUDU1501    2
 MODEL          : WHAPS048 - Wheat
 EXPERIMENT     : TUDU1501 WH
 DATA PATH      :
 TREATMENT  2   : 2                         WHAPS048
  
!                                                                                                                                                                                                                                             Root Dens. (cm/cm3) by soil depth (cm):
!                                                                                                                                                                                                                                             0-5    5-15   15-20   20-30   30-40   40-50   50-60   60-70   70-90  90-210
@YEAR DOY   DAS   DAP    DCCD  GSTD   LAID   LWAD   SWAD   GWAD   RWAD   VWAD   CWAD   G#AD   G#AD2  GWGD   HIAD   SHAD   WSPD   WSGD   SLFT   NSTD   EWSD  PST1A  PST2A   KSTD   LN%D   TPSM   HIPD   PWDD   PWTD     SLAD   CHTD   CWID   RDPD    RL1D    RL2D    RL3D    RL4D    RL5D    RL6D    RL7D    RL8D    RL9D   RL10D   CDAD   LDAD   SDAD   SNW0C   SNW1C    DTTD   SUMDTT
   15 077     1     0   0.000     8  0.000      0      0      0      0      0      0      0      0    0.0  0.000      0   0.00   0.00   0.00   0.00   0.00   0.00   0.00   1.00   0.00    0.0   0.00      0      0      0.0   0.00   0.00 0.0250   0.000   0.000   0.000   0.000   0.000   0.000   0.000   0.000   0.000   0.000      0      0      0       0       0   7.000    0.000
   15 078     2     1   0.000     8  0.000      0      0      0      0      0      0      0      0    0.0  0.000      0   0.00   0.00   0.00   0.00   0.00   0.00   0.00   1.00   0.00    0.0   0.00      0      0      0.0   0.00   0.00 0.0250   0.000   0.000   0.000   0.000   0.000   0.000   0.000   0.000   0.000   0.000      0      0      0       0       0   7.097    7.097
   15 079     3     2   1.022     9  0.000      0      0      0      0      0      0      0      0    0.0  0.000      0   0.00   0.00   0.00   0.00   0.00   0.00   0.00   1.00   0.00    0.0   0.00      0      0      0.0   0.00   0.00 0.0250   0.000   0.000   0.000   0.000   0.000   0.000   0.000   0.000   0.000   0.000      0      0      0       0       0   6.695    6.695
   15 080     4     3   2.060     9  0.000      0      0      0      0      0      0      0      0    0.0  0.000      0   0.00   0.00   0.00   0.00   0.00   0.00   0.00   1.00   0.00    0.0   0.00      0      0      0.0   0.00   0.00 0.0317   0.000   0.000   0.000   0.000   0.000   0.000   0.000   0.000   0.000   0.000      0      0      0       0       0   6.798   13.493
   15 081     5     4   2.594     9  0.000      0      0      0      0      0      0      0      0    0.0  0.000      0   0.00   0.00   0.00   0.00   0.00   0.00   0.00   1.00   0.00    0.0   0.00      0      0      0.0   0.00   0.00 0.0385   0.000   0.000   0.000   0.000   0.000   0.000   0.000   0.000   0.000   0.000      0      0      0       0       0   3.500   16.993
   15 082     6     5   3.052     9  0.000      0      0      0      0      0      0      0      0    0.0  0.000      0   0.00   0.00   0.00   0.00   0.00   0.00   0.00   1.00   0.00    0.0   0.00      0      0      0.0   0.00   0.00 0.0420   0.000   0.000   0.000   0.000   0.000   0.000   0.000   0.000   0.000   0.000      0      0      0       0       0   3.000   19.993
   15 083     7     6   4.227     9  0.000      0      0      0      0      0      0      0      0    0.0  0.000      0   0.00   0.00   0.00   0.00   0.00   0.00   0.00   1.00   0.00    0.0   0.00      0      0      0.0   0.00   0.00 0.0450   0.000   0.000   0.000   0.000   0.000   0.000   0.000   0.000   0.000   0.000      0      0      0       0       0   7.695   27.688
   15 084     8     7   5.525     9  0.000      0      0      0      0      0      0      0      0    0.0  0.000      0   0.00   0.00   0.00   0.00   0.00   0.00   0.00   1.00   0.00    0.0   0.00      0      0      0.0   0.00   0.00 0.0500   0.000   0.000   0.000   0.000   0.000   0.000   0.000   0.000   0.000   0.000      0      0      0       0       0   8.500   36.188
   15 085     9     8   6.365     9  0.000      0      0      0      0      0      0      0      0    0.0  0.000      0   0.00   0.00   0.00   0.00   0.00   0.00   0.00   1.00   0.00    0.0   0.00      0      0      0.0   0.00   0.00 0.0500   0.000   0.000   0.000   0.000   0.000   0.000   0.000   0.000   0.000   0.000      0      0      0       0       0   5.500   41.688
   15 086    10     9   7.281     9  0.000      0      0      0      0      0      0      0      0    0.0  0.000      0   0.00   0.00   0.00   0.00   0.00   0.00   0.00   1.00   0.00    0.0   0.00      0      0      0.0   0.00   0.00 0.0500   0.000   0.000   0.000   0.000   0.000   0.000   0.000   0.000   0.000   0.000      0      0      0       0       0   6.000   47.688
   15 087    11    10   8.197     9  0.000      0      0      0      0      0      0      0      0    0.0  0.000      0   0.00   0.00   0.00   0.00   0.00   0.00   0.00   1.00   0.00    0.0   0.00      0      0      0.0   0.00   0.00 0.0500   0.000   0.000   0.000   0.000   0.000   0.000   0.000   0.000   0.000   0.000      0      0      0       0       0   6.000   53.688
   15 088    12    11   9.571     9  0.000      0      0      0      0      0      0      0      0    0.0  0.000      0   0.00   0.00   0.00   0.00   0.00   0.00   0.00   1.00   0.00    0.0   0.00      0      0      0.0   0.00   0.00 0.0500   0.000   0.000   0.000   0.000   0.000   0.000   0.000   0.000   0.000   0.000      0      0      0       0       0   9.000   62.688
   15 089    13    12  10.159     1  0.018     10      0      0     24     11     11      0      0    0.0  0.000      1   0.00   0.00   1.00   0.00   0.00   0.00   0.00   1.00   5.68  400.0   0.00      0      1    299.5   0.00   0.00 0.0614   0.042   0.005   0.000   0.000   0.000   0.000   0.000   0.000   0.000   0.000      0      0      0       0       0   6.000    3.188
   15 090    14    13  10.362     1  0.019     13      0      0     24     14     14      0      0    0.0  0.000      1   0.00   0.00   1.00   0.00   0.00   0.00   0.00   1.00   5.18  400.0   0.00      0      1    298.9   0.00   0.00 0.0747   0.042   0.005   0.000   0.000   0.000   0.000   0.000   0.000   0.000   0.000      0      0      0       0       0   7.000    7.237
   15 091    15    14  10.450     1  0.021     13      0      0     25     15     15      0      0    0.0  0.000      2   0.00   0.00   1.00   0.00   0.00   0.00   0.00   1.00   6.05  400.0   0.00      0      2    298.7   0.00   0.00 0.0804   0.041   0.005   0.000   0.000   0.000   0.000   0.000   0.000   0.000   0.000      0      0      0       0       0   3.000    9.004
   15 092    16    15  10.540     1  0.022     14      0      0     25     16     16      0      0    0.0  0.000      2   0.00   0.00   1.00   0.00   0.00   0.00   0.00   1.00   6.02  400.0   0.00      0      2    298.4   0.00   0.00 0.0861   0.041   0.005   0.000   0.000   0.000   0.000   0.000   0.000   0.000   0.000      0      0      0       0       0   3.000   10.802
   15 093    17    16  10.695     1  0.025     15      0      0     26     19     19      0      0    0.0  0.000      3   0.00   0.00   1.00   0.00   0.00   0.00   0.00   1.00   5.66  400.0   0.00      0      3    298.0   0.00   0.00 0.0958   0.041   0.005   0.000   0.000   0.000   0.000   0.000   0.000   0.000   0.000      0      0      0       0       0   5.097   13.908
   15 094    18    17  10.789     1  0.027     16      0      0     26     20     20      0      0    0.0  0.000      4   0.00   0.00   1.00   0.00   0.00   0.00   0.00   1.00   5.98  400.0   0.00      0      4    297.7   0.00   0.00 0.1014   0.040   0.005   0.000   0.000   0.000   0.000   0.000   0.000   0.000   0.000      0      0      0       0       0   3.000   15.773
   15 095    19    18  10.889     1  0.028     16      0      0     27     21     21      0      0    0.0  0.000      4   0.00   0.00   1.00   0.00   0.00   0.00   0.00   1.00   6.04  400.0   0.00      0      4    297.4   0.00   0.00 0.1075   0.040   0.005   0.000   0.000   0.000   0.000   0.000   0.000   0.000   0.000      0      0      0       0       0   3.195   17.788
   15 096    20    19  10.992     1  0.030     17      0      0     27     22     22      0      0    0.0  0.000      5   0.00   0.00   1.00   0.00   0.00   0.00   0.00   1.00   6.02  400.0   0.00      0      5    297.2   0.00   0.00 0.1136   0.040   0.005   0.000   0.000   0.000   0.000   0.000   0.000   0.000   0.000      0      0      0       0       0   3.195   19.833
   15 097    21    20  11.128     1  0.033     18      0      0     29     24     24      0      0    0.0  0.000      6   0.00   0.00   1.00   0.00   0.00   0.00   0.00   1.00   5.80  400.0   0.00      0      6    296.8   0.00   0.00 0.1215   0.039   0.005   0.000   0.000   0.000   0.000   0.000   0.000   0.000   0.000      0      0      0       0       0   4.195   22.555
   15 098    22    21  11.342     1  0.039     22      0      0     30     31     31      0      0    0.0  0.000      8   0.00   0.00   1.00   0.00   0.00   0.00   0.00   1.00   5.05  400.0   0.00      0      8    296.2   0.00   0.00 0.1339   0.039   0.005   0.000   0.000   0.000   0.000   0.000   0.000   0.000   0.000      0      0      0       0       0   6.500   26.830
   15 099    23    22  11.674     1  0.047     32      0      0     32     43     43      0      0    0.0  0.000     10   0.00   0.00   1.00   0.00   0.00   0.00   0.00   1.00   4.28  400.0   0.00      0     10    295.4   0.00   0.00 0.1529   0.039   0.005   0.000   0.000   0.000   0.000   0.000   0.000   0.000   0.000      0      0      0       0       0  10.000   33.475
   15 100    24    23  12.042     1  0.055     38      0      0     34     52     52      0      0    0.0  0.000     13   0.00   0.00   1.00   0.48   0.00   0.00   0.00   1.00   5.10  400.0   0.00      0     13    294.5   0.00   0.00 0.1722   0.039   0.005   0.000   0.000   0.000   0.000   0.000   0.000   0.000   0.000      0      0      0       0       0  11.000   40.847
   15 101    25    24  12.431     1  0.064     48      0      0     36     65     65      0      0    0.0  0.000     16   0.00   0.00   1.00   0.28   0.00   0.00   0.00   1.00   4.80  400.0   0.00      0     16    293.5   0.00   0.00 0.1925   0.039   0.005   0.000   0.000   0.000   0.000   0.000   0.000   0.000   0.000      0      0      0       0       0  11.500   48.616
   15 102    26    25  12.822     1  0.075     59      0      0     39     79     79      0      0    0.0  0.000     20   0.00   0.00   1.00   0.33   0.00   0.00   0.00   1.00   4.95  400.0   0.00      0     20    292.6   0.00   0.00 0.2127   0.039   0.005   0.000   0.000   0.000   0.000   0.000   0.000   0.000   0.000      0      0      0       0       0  11.500   56.448
   15 103    27    26  13.217     1  0.088     70      0      0     43     95     95      0      0    0.0  0.000     24   0.00   0.00   1.00   0.29   0.00   0.00   0.00   1.00   4.96  400.0   0.00      0     24    291.7   0.00   0.00 0.2304   0.039   0.005   0.000   0.000   0.000   0.000   0.000   0.000   0.000   0.000      0      0      0       0       0  11.500   64.341
   15 104    28    27  13.615     1  0.106     83      0      0     47    114    114      0      0    0.0  0.000     31   0.00   0.00   1.00   0.28   0.00   0.00   0.00   1.00   4.64  400.0   0.00      0     31    290.9   0.00   0.00 0.2481   0.039   0.005   0.000   0.000   0.000   0.000   0.000   0.000   0.000   0.000      0      0      0       0       0  11.500   72.297
   15 105    29    28  14.101     1  0.129     96      0      0     54    135    135      0      0    0.0  0.000     39   0.00   0.00   1.00   0.37   0.00   0.00   0.00   1.00   4.22  400.0   0.00      0     39    289.9   0.00   0.00 0.2697   0.038   0.005   0.001   0.000   0.000   0.000   0.000   0.000   0.000   0.000      0      0      0       0       0  14.000   82.028
   15 106    30    29  14.625     1  0.146    102      0      0     58    146    146      0      0    0.0  0.000     44   0.00   0.00   1.00   0.50   0.00   0.00   0.00   1.00   4.16  400.0   0.00      0     44    288.9   0.00   0.00 0.2928   0.038   0.005   0.001   0.001   0.000   0.000   0.000   0.000   0.000   0.000      0      0      0       0       0  15.000   92.491
   15 107    31    30  14.994     1  0.157    106      0      0     61    154    154      0      0    0.0  0.000     48   0.00   0.00   1.00   0.53   0.00   0.00   0.00   1.00   5.83  400.0   0.00      0     48    288.2   0.00   0.00 0.3090   0.038   0.005   0.001   0.001   0.000   0.000   0.000   0.000   0.000   0.000      0      0      0       0       0  10.500   99.881
   15 108    32    31  15.172     1  0.172    111      0      0     71    164    164      0      0    0.0  0.000     53   0.00   0.00   1.00   0.00   0.00   0.00   0.00   1.00   5.81  400.0   0.00      0     53    287.9   0.00   0.00 0.3159   0.038   0.005   0.001   0.001   0.000   0.000   0.000   0.000   0.000   0.000      0      0      0       0       0   5.000  103.448
   15 109    33    32  15.389     1  0.193    118      0      0     84    179    179      0      0    0.0  0.000     61   0.00   0.00   1.00   0.00   0.00   0.00   0.00   1.00   5.78  400.0   0.00      0     61    287.5   0.00   0.00 0.3243   0.038   0.006   0.002   0.001   0.000   0.000   0.000   0.000   0.000   0.000      0      0      0       0       0   6.000  107.783
   15 110    34    33  15.681     1  0.228    130      0      0     98    204    204      0      0    0.0  0.000     73   0.00   0.00   1.00   0.00   0.00   0.00   0.00   1.00   5.71  400.0   0.00      0     73    287.0   0.00   0.00 0.3354   0.038   0.006   0.002   0.001   0.000   0.000   0.000   0.000   0.000   0.000      0      0      0       0       0   8.000  113.630
   15 111    35    34  16.050     1  0.279    148      0      0    112    239    239      0      0    0.0  0.000     91   0.00   0.00   1.00   0.00   0.00   0.00   0.00   1.00   5.63  400.0   0.00      0     91    286.4   0.00   0.00 0.3493   0.039   0.007   0.002   0.001   0.000   0.000   0.000   0.000   0.000   0.000      0      0      0       0       0  10.000  121.004
   15 112    36    35  16.441     1  0.337    168      0      0    130    280    280      0      0    0.0  0.000    111   0.00   0.00   1.00   0.00   0.00   0.00   0.00   1.00   5.58  400.0   0.00      0    111    285.8   0.00   0.00 0.3640   0.039   0.007   0.003   0.002   0.000   0.000   0.000   0.000   0.000   0.000      0      0      0       0       0  10.500  128.812
   15 113    37    36  16.666     1  0.360    176      0      0    145    296    296      0      0    0.0  0.000    119   0.00   0.00   1.00   0.00   0.00   0.00   0.00   1.00   5.59  400.0   0.00      0    119    285.4   0.00   0.00 0.3723   0.040   0.008   0.003   0.002   0.000   0.000   0.000   0.000   0.000   0.000      0      0      0       0       0   6.000  133.329
   15 114    38    37  17.009     1  0.409    193      0      0    177    330    330      0      0    0.0  0.000    136   0.00   0.00   1.00   0.00   0.00   0.00   0.00   1.00   5.51  400.0   0.00      0    136    284.9   0.00   0.00 0.3849   0.041   0.008   0.003   0.002   0.001   0.000   0.000   0.000   0.000   0.000      0      0      0       0       0   9.000  140.172
   15 115    39    38  17.430     1  0.463    212      0      0    192    368    368      0      0    0.0  0.000    155   0.00   0.00   1.00   0.00   0.00   0.00   0.00   1.00   5.45  400.0   0.00      0    155    284.3   0.00   0.00 0.4002   0.042   0.009   0.004   0.003   0.001   0.000   0.000   0.000   0.000   0.000      0      0      0       0       0  11.000  148.598
   15 116    40    39  18.006     1  0.544    241      0      0    215    426    426      0      0    0.0  0.000    184   0.00   0.00   1.00   0.00   0.00   0.00   0.00   1.00   5.24  400.0   0.00      0    184    283.5   0.00   0.00 0.4189   0.043   0.010   0.005   0.003   0.001   0.000   0.000   0.000   0.000   0.000      0      0      0       0       0  15.000  160.127
   15 117    41    40  18.547     1  0.633    273      0      0    250    488    488      0      0    0.0  0.000    215   0.00   0.00   1.00   0.02   0.00   0.00   0.00   1.00   5.30  400.0   0.00      0    215    282.8   0.00   0.00 0.4364   0.044   0.011   0.005   0.003   0.002   0.000   0.000   0.000   0.000   0.000      0      0      0       0       0  14.000  170.933
   15 118    42    41  18.859     1  0.678    289      0      0    268    520    520      0      0    0.0  0.000    231   0.00   0.00   1.00   0.00   0.00   0.00   0.00   1.00   5.31  400.0   0.00      0    231    282.4   0.00   0.00 0.4463   0.046   0.012   0.006   0.004   0.002   0.000   0.000   0.000   0.000   0.000      0      0      0       0       0   8.000  177.174
   15 119    43    42  19.115     1  0.710    300      0      0    288    543    543      0      0    0.0  0.000    243   0.00   0.00   1.00   0.00   0.00   0.00   0.00   1.00   5.26  400.0   0.00      0    243    282.1   0.00   0.00 0.4544   0.046   0.012   0.006   0.004   0.002   0.000   0.000   0.000   0.000   0.000      0      0      0       0       0   6.500  182.304
   15 120    44    43  19.513     1  0.778    324      0      0    333    591    591      0      0    0.0  0.000    267   0.00   0.00   1.00   0.00   0.00   0.00   0.00   1.00   5.21  400.0   0.00      0    267    281.6   0.00   0.00 0.4669   0.047   0.013   0.007   0.004   0.003   0.001   0.000   0.000   0.000   0.000      0      0      0       0       0  10.000  190.262
   15 121    45    44  19.835     1  0.826    341      0      0    353    625    625      0      0    0.0  0.000    284   0.00   0.00   1.00   0.00   0.00   0.00   0.00   1.00   5.17  400.0   0.00      0    284    281.2   0.00   0.00 0.4769   0.048   0.014   0.008   0.005   0.003   0.001   0.000   0.000   0.000   0.000      0      0      0       0       0   8.000  196.694
[...]
   15 185   109   108  67.147     4  1.026    684   2368      0    893   3679   3679      0      0    0.0  0.000    627   0.00   0.00   1.00   0.00   0.00   0.00   0.00   1.00   2.27  400.0   0.00      0    627    274.2   0.00   0.00 1.3492   0.031   0.015   0.013   0.011   0.010   0.008   0.007   0.006   0.004   0.004      0      0      0       0       0  22.875  131.538
   15 186   110   109  68.125     4  1.007    684   2462      0    894   3772   3772      0      0    0.0  0.000    627   0.00   0.00   1.10   0.00   0.00   0.00   0.00   1.00   2.27  400.0   0.00      0    627    274.2   0.00   0.00 1.3659   0.030   0.015   0.013   0.011   0.010   0.008   0.007   0.006   0.004   0.004      0      0      0       0       0  23.469  155.007
   15 187   111   110  69.055     4  0.985    684   2565      0    897   3876   3876      0      0    0.0  0.000    627   0.00   0.00   1.00   0.00   0.00   0.00   0.00   1.00   2.27  400.0   0.00      0    627    274.2   0.00   0.00 1.3819   0.030   0.015   0.013   0.011   0.010   0.008   0.007   0.006   0.004   0.004      0      0      0       0       0  22.318  177.325
   15 188   112   111  70.011     5  0.966    684   2286    361    896   3597   3958   6540   6540    5.5  0.091    627   0.00   0.00   1.11   0.00   0.00   0.00   0.00   1.00   1.96  400.0   0.00      0    627    274.2   0.00   0.00 1.3984   0.030   0.015   0.013   0.011   0.010   0.008   0.007   0.006   0.004   0.004      0      0      0       0       0  23.059    0.384
   15 189   113   112  70.497     5  0.966    684   2239    493    895   3550   4043   6540   6540    7.5  0.122    627   0.00   0.00   1.00   0.00   0.00   0.00   0.00   1.00   1.78  400.0   0.00      0    627    274.2   0.00   0.00 1.4105   0.030   0.015   0.013   0.011   0.010   0.008   0.007   0.006   0.004   0.004      0      0      0       0       0  17.000   17.384
   15 190   114   113  70.882     5  0.965    684   2210    610    893   3521   4131   6540   6540    9.3  0.148    627   0.00   0.00   1.00   0.00   0.00   0.00   0.00   1.00   1.63  400.0   0.00      0    627    274.2   0.00   0.00 1.4202   0.030   0.015   0.013   0.011   0.010   0.008   0.007   0.006   0.004   0.004      0      0      0       0       0  13.500   30.884
   15 191   115   114  71.297     5  0.964    684   2216    727    893   3526   4253   6540   6540   11.1  0.171    627   0.00   0.00   1.00   0.00   0.00   0.00   0.00   1.00   1.47  400.0   0.00      0    627    274.2   0.00   0.00 1.4306   0.029   0.015   0.013   0.011   0.010   0.008   0.007   0.006   0.004   0.004      0      0      0       0       0  14.500   45.384
   15 192   116   115  71.808     5  0.961    684   2208    840    893   3519   4359   6540   6540   12.8  0.193    627   0.00   0.00   1.00   0.00   0.00   0.00   0.00   1.00   1.29  400.0   0.00      0    627    274.2   0.00   0.00 1.4433   0.029   0.014   0.012   0.011   0.010   0.008   0.007   0.006   0.004   0.004      0      0      0       0       0  17.900   63.284
   15 193   117   116  72.379     5  0.956    684   2171    974    891   3481   4456   6540   6540   14.9  0.219    627   0.00   0.00   1.00   0.00   0.00   0.00   0.00   1.00   1.11  400.0   0.00      0    627    274.2   0.00   0.00 1.4576   0.029   0.014   0.012   0.011   0.010   0.008   0.007   0.006   0.004   0.004      0      0      0       0       0  19.964   83.248
   15 194   118   117  72.893     5  0.950    684   2095   1109    887   3406   4515   6540   6540   17.0  0.246    627   0.00   0.00   1.00   0.00   0.00   0.00   0.00   1.00   0.97  400.0   0.00      0    627    274.2   0.00   0.00 1.4705   0.029   0.014   0.012   0.011   0.010   0.008   0.007   0.006   0.004   0.004      0      0      0       0       0  18.000  101.248
   15 195   119   118  73.464     5  0.943    684   2024   1257    883   3335   4592   6540   6540   19.2  0.274    627   0.00   0.00   1.00   0.00   0.00   0.00   0.00   1.00   0.85  400.0   0.00      0    627    274.2   0.00   0.00 1.4848   0.028   0.014   0.012   0.011   0.010   0.008   0.007   0.006   0.004   0.004      0      0      0       0       0  20.000  121.248
   15 196   120   119  74.077     5  0.933    684   1965   1406    878   3276   4682   6540   6540   21.5  0.300    627   0.00   0.00   1.00   0.00   0.00   0.00   0.00   1.00   0.76  400.0   0.00      0    627    274.2   0.00   0.00 1.5001   0.028   0.014   0.012   0.011   0.010   0.008   0.007   0.006   0.004   0.004      0      0      0       0       0  21.455  142.703
   15 197   121   120  74.686     5  0.921    684   1929   1531    873   3239   4770   6540   6540   23.4  0.321    627   0.00   0.00   1.00   0.00   0.00   0.00   0.00   1.00   0.70  400.0   0.00      0    627    274.2   0.00   0.00 1.5123   0.028   0.014   0.012   0.011   0.010   0.008   0.007   0.006   0.004   0.004      0      0      0       0       0  21.306  164.008
   15 198   122   121  75.333     5  0.907    684   1872   1658    866   3183   4841   6540   6540   25.4  0.343    627   0.00   0.00   1.10   0.00   0.00   0.00   0.00   1.00   0.66  400.0   0.00      0    627    274.2   0.00   0.00 1.5252   0.028   0.014   0.012   0.011   0.010   0.008   0.007   0.006   0.004   0.004      0      0      0       0       0  22.639  186.647
   15 199   123   122  75.938     5  0.889    684   1804   1793    859   3115   4908   6540   6540   27.4  0.365    627   0.00   0.00   1.00   0.00   0.00   0.00   0.00   1.00   0.62  400.0   0.00      0    627    274.2   0.00   0.00 1.5373   0.027   0.014   0.012   0.011   0.010   0.008   0.007   0.006   0.004   0.004      0      0      0       0       0  21.200  207.847
   15 200   124   123  76.562     5  0.872    684   1753   1911    851   3064   4975   6540   6540   29.2  0.384    627   0.00   0.00   1.00   0.00   0.00   0.00   0.00   1.00   0.60  400.0   0.00      0    627    274.2   0.00   0.00 1.5497   0.027   0.014   0.012   0.011   0.010   0.008   0.007   0.006   0.004   0.004      0      0      0       0       0  21.833  229.680
   15 201   125   124  77.214     5  0.852    684   1753   1984    843   3064   5048   6540   6540   30.3  0.393    627   0.00   0.00   1.00   0.00   0.00   0.00   0.00   1.00   0.57  400.0   0.00      0    627    274.2   0.00   0.00 1.5627   0.027   0.014   0.012   0.010   0.009   0.008   0.007   0.006   0.004   0.004      0      0      0       0       0  22.800  252.480
   15 202   126   125  77.867     5  0.829    684   1753   2059    834   3064   5123   6540   6540   31.5  0.402    627   0.00   0.00   1.01   0.00   0.00   0.00   0.00   1.00   0.55  400.0   0.00      0    627    274.2   0.00   0.00 1.5757   0.027   0.013   0.012   0.010   0.009   0.008   0.007   0.006   0.004   0.004      0      0      0       0       0  22.875  275.355
   15 203   127   126  78.519     5  0.804    684   1753   2123    826   3064   5187   6540   6540   32.5  0.409    627   0.00   0.00   1.47   0.00   0.00   0.00   0.00   1.00   0.53  400.0   0.00      0    627    274.2   0.00   0.00 1.5887   0.026   0.013   0.012   0.010   0.009   0.008   0.006   0.006   0.004   0.004      0      0      0       0       0  22.816  298.171
   15 204   128   127  79.119     5  0.765    684   1753   2177    818   3064   5241   6540   6540   33.3  0.415    627   0.00   0.00   1.00   0.00   0.00   0.00   0.00   1.00   0.52  400.0   0.00      0    627    274.2   0.00   0.00 1.6007   0.026   0.013   0.011   0.010   0.009   0.008   0.006   0.006   0.004   0.004      0      0      0       0       0  21.000  319.171
   15 205   129   128  79.725     5  0.738    684   1753   2243    810   3064   5307   6540   6540   34.3  0.423    627   0.00   0.00   1.00   0.00   0.00   0.00   0.00   1.00   0.50  400.0   0.00      0    627    274.2   0.00   0.00 1.6128   0.026   0.013   0.011   0.010   0.009   0.008   0.006   0.006   0.004   0.004      0      0      0       0       0  21.200  340.371
   15 206   130   129  80.253     5  0.710    684   1753   2314    802   3064   5378   6540   6540   35.4  0.430    627   0.00   0.00   1.00   0.00   0.00   0.00   0.00   1.00   0.49  400.0   0.00      0    627    274.2   0.00   0.00 1.6233   0.026   0.013   0.011   0.010   0.009   0.007   0.006   0.006   0.004   0.004      0      0      0       0       0  18.500  358.871
   15 207   131   130  80.696     5  0.684    684   1763   2384    794   3074   5458   6540   6540   36.5  0.437    627   0.00   0.00   1.00   0.00   0.00   0.00   0.00   1.00   0.48  400.0   0.00      0    627    274.2   0.00   0.00 1.6321   0.025   0.013   0.011   0.010   0.009   0.007   0.006   0.006   0.004   0.003      0      0      0       0       0  15.500  374.371
   15 208   132   131  81.196     5  0.661    684   1759   2450    786   3070   5521   6540   6540   37.5  0.444    627   0.00   0.00   1.00   0.00   0.00   0.00   0.00   1.00   0.46  400.0   0.00      0    627    274.2   0.00   0.00 1.6421   0.025   0.013   0.011   0.010   0.009   0.007   0.006   0.006   0.004   0.003      0      0      0       0       0  17.500  391.871
   15 209   133   132  81.682     5  0.634    684   1753   2513    778   3064   5577   6540   6540   38.4  0.451    627   0.00   0.00   1.00   0.00   0.00   0.00   0.00   1.00   0.45  400.0   0.00      0    627    274.2   0.00   0.00 1.6518   0.025   0.013   0.011   0.010   0.009   0.007   0.006   0.006   0.004   0.003      0      0      0       0       0  17.000  408.871
   15 210   134   133  82.096     5  0.606    684   1753   2556    770   3064   5620   6540   6540   39.1  0.455    627   0.00   0.00   1.00   0.00   0.00   0.00   0.00   1.00   0.44  400.0   0.00      0    627    274.2   0.00   0.00 1.6601   0.025   0.012   0.011   0.010   0.009   0.007   0.006   0.005   0.004   0.003      0      0      0       0       0  14.500  423.371
   15 211   135   134  82.496     5  0.582    684   1753   2616    762   3064   5679   6540   6540   40.0  0.461    627   0.00   0.00   1.00   0.00   0.00   0.00   0.00   1.00   0.43  400.0   0.00      0    627    274.2   0.00   0.00 1.6680   0.024   0.012   0.011   0.009   0.009   0.007   0.006   0.005   0.004   0.003      0      0      0       0       0  14.000  437.371
   15 212   136   135  82.953     5  0.558    684   1757   2675    755   3068   5742   6540   6540   40.9  0.466    627   0.00   0.01   1.00   0.00   0.00   0.00   0.00   1.00   0.42  400.0   0.00      0    627    274.2   0.00   0.00 1.6772   0.024   0.012   0.011   0.009   0.008   0.007   0.006   0.005   0.004   0.003      0      0      0       0       0  16.000  453.371
   15 213   137   136  83.425     5  0.529    684   1753   2712    747   3064   5776   6540   6540   41.5  0.470    627   0.00   0.05   1.00   0.00   0.00   0.00   0.00   1.00   0.41  400.0   0.00      0    627    274.2   0.00   0.00 1.6866   0.024   0.012   0.010   0.009   0.008   0.007   0.006   0.005   0.004   0.003      0      0      0       0       0  16.500  469.871
   15 214   138   137  83.953     5  0.499    684   1753   2757    740   3064   5821   6540   6540   42.2  0.474    627   0.00   0.05   1.00   0.00   0.00   0.00   0.00   1.00   0.40  400.0   0.00      0    627    274.2   0.00   0.00 1.6971   0.024   0.012   0.010   0.009   0.008   0.007   0.006   0.005   0.004   0.003      0      0      0       0       0  18.500  488.371
   15 215   139   138  84.507     5  0.463    684   1753   2806    732   3064   5870   6540   6540   42.9  0.478    627   0.00   0.07   1.00   0.00   0.00   0.00   0.00   1.00   0.39  400.0   0.00      0    627    274.2   0.00   0.00 1.7081   0.023   0.012   0.010   0.009   0.008   0.007   0.006   0.005   0.004   0.003      0      0      0       0       0  19.382  507.754
   15 216   140   139  85.103     5  0.424    684   1753   2841    725   3064   5905   6540   6540   43.4  0.481    627   0.00   0.09   1.00   0.00   0.00   0.00   0.00   1.00   0.38  400.0   0.00      0    627    274.2   0.00   0.00 1.7179   0.023   0.012   0.010   0.009   0.008   0.007   0.006   0.005   0.004   0.003      0      0      0       0       0  20.842  528.596
   15 217   141   140  85.695     5  0.381    684   1753   2878    718   3064   5942   6540   6540   44.0  0.484    627   0.00   0.10   1.00   0.00   0.00   0.00   0.00   1.00   0.36  400.0   0.00      0    627    274.2   0.00   0.00 1.7276   0.023   0.012   0.010   0.009   0.008   0.007   0.006   0.005   0.004   0.003      0      0      0       0       0  20.719  549.314
   15 218   142   141  86.317     5  0.336    684   1753   2906    711   3064   5970   6540   6540   44.4  0.487    627   0.00   0.12   1.62   0.00   0.00   0.00   0.00   1.00   0.35  400.0   0.00      0    627    274.2   0.00   0.00 1.7378   0.023   0.011   0.010   0.009   0.008   0.007   0.006   0.005   0.004   0.003      0      0      0       0       0  21.775  571.089
   15 219   143   142  86.961     5  0.256    684   1753   2924    704   3064   5988   6540   6540   44.7  0.488    627   0.00   0.13   2.24   0.00   0.00   0.00   0.00   1.00   0.34  400.0   0.00      0    627    274.2   0.00   0.00 1.7484   0.022   0.011   0.010   0.009   0.008   0.007   0.006   0.005   0.004   0.003      0      0      0       0       0  22.551  593.640
   15 220   144   143  87.613     5  0.138    684   1753   2934    697   3064   5998   6540   6540   44.9  0.489    627   0.00   0.14   2.04   0.06   0.00   0.00   0.00   1.00   0.33  400.0   0.00      0    627    274.2   0.00   0.00 1.7591   0.022   0.011   0.010   0.009   0.008   0.006   0.005   0.005   0.004   0.003      0      0      0       0       0  22.816  616.456
   15 221   145   144  88.272     5  0.025    684   1753   2936    690   3064   6000   6540   6540   44.9  0.489    627   0.00   0.14   1.84   0.09   0.00   0.00   0.00   1.00   0.32  400.0   0.00      0    627    274.2   0.00   0.00 1.7699   0.022   0.011   0.010   0.009   0.008   0.006   0.005   0.005   0.003   0.003      0      0      0       0       0  23.059  639.515
   15 222   146   145  88.926     5  0.000    684   1754   2936    683   3064   6001   6540   6540   44.9  0.489    627   0.00   0.14   1.00   0.00   0.00   0.00   0.00   1.00   0.32  400.0   0.00      0    627    274.2   0.00   0.00 1.7806   0.022   0.011   0.010   0.008   0.008   0.006   0.005   0.005   0.003   0.003      0      0      0       0       0  22.885  662.400
   15 223   147   146  89.573     5  0.000    684   1754   2936    676   3065   6001   6540   6540   44.9  0.489    627   0.00   0.13   1.30   0.00   0.00   0.00   0.00   1.00   0.32  400.0   0.00      0    627    274.2   0.00   0.00 1.7912   0.022   0.011   0.009   0.008   0.008   0.006   0.005   0.005   0.003   0.003      0      0      0       0       0  22.667  685.066
   15 224   148   147  90.000     6  0.000    684   1754   2936    669   3065   6001   6540   6540   44.9  0.489    627   0.00   0.13   1.90   0.00   0.00   0.00   0.00   1.00   0.32  400.0   0.00      0    627    274.2   0.00   0.00 1.7912   0.021   0.011   0.009   0.008   0.007   0.006   0.005   0.005   0.003   0.003      0      0      0       0       0  22.211    7.277
   15 225   149   148  90.000     7  0.000    684   1754   2936    669   3065   6001   6540   6540   44.9  0.489    627   0.00   0.13   1.90   0.00   0.00   0.00   0.00   1.00   0.32  400.0   0.00      0    627    274.2   0.00   0.00 1.7912   0.021   0.011   0.009   0.008   0.007   0.006   0.005   0.005   0.003   0.003      0      0      0       0       0  22.211    7.000
   15 226   150   149  90.000     7  0.000    684   1754   2936    669   3065   6001   6540   6540   44.9  0.489    627   0.00   0.13   1.90   0.00   0.00   0.00   0.00   1.00   0.32  400.0   0.00      0    627    274.2   0.00   0.00 1.7912   0.021   0.011   0.009   0.008   0.007   0.006   0.005   0.005   0.003   0.003      0      0      0       0       0  22.211    7.000
   15 227   151   150  90.000     7  0.000    684   1754   2936    669   3065   6001   6540   6540   44.9  0.489    627   0.00   0.13   1.90   0.00   0.00   0.00   0.00   1.00   0.32  400.0   0.00      0    627    274.2   0.00   0.00 1.7912   0.021   0.011   0.009   0.008   0.007   0.006   0.005   0.005   0.003   0.003      0      0      0       0       0  22.211    7.000
   15 228   152   151  90.000     7  0.000    684   1754   2936    669   3065   6001   6540   6540   44.9  0.489    627   0.00   0.13   1.90   0.00   0.00   0.00   0.00   1.00   0.32  400.0   0.00      0    627    274.2   0.00   0.00 1.7912   0.021   0.011   0.009   0.008   0.007   0.006   0.005   0.005   0.003   0.003      0      0      0       0       0  22.211    7.000
   15 229   153   152  90.000     7  0.000    684   1754   2936    669   3065   6001   6540   6540   44.9  0.489    627   0.00   0.13   1.90   0.00   0.00   0.00   0.00   1.00   0.32  400.0   0.00      0    627    274.2   0.00   0.00 1.7912   0.021   0.011   0.009   0.008   0.007   0.006   0.005   0.005   0.003   0.003      0      0      0       0       0  22.211    7.000
   15 230   154   153  90.000     7  0.000    684   1754   2936    669   3065   6001   6540   6540   44.9  0.489    627   0.00   0.13   1.90   0.00   0.00   0.00   0.00   1.00   0.32  400.0   0.00      0    627    274.2   0.00   0.00 1.7912   0.021   0.011   0.009   0.008   0.007   0.006   0.005   0.005   0.003   0.003      0      0      0       0       0  22.211    7.000
   15 231   155   154  90.000     7  0.000    684   1754   2936    669   3065   6001   6540   6540   44.9  0.489    627   0.00   0.13   1.90   0.00   0.00   0.00   0.00   1.00   0.32  400.0   0.00      0    627    274.2   0.00   0.00 1.7912   0.021   0.011   0.009   0.008   0.007   0.006   0.005   0.005   0.003   0.003      0      0      0       0       0  22.211    7.000
   15 232   156   155  90.000     7  0.000    684   1754   2936    669   3065   6001   6540   6540   44.9  0.489    627   0.00   0.13   1.90   0.00   0.00   0.00   0.00   1.00   0.32  400.0   0.00      0    627    274.2   0.00   0.00 1.7912   0.021   0.011   0.009   0.008   0.007   0.006   0.005   0.005   0.003   0.003      0      0      0       0       0  22.211    7.000
   15 233   157   156  90.000     7  0.000    684   1754   2936    669   3065   6001   6540   6540   44.9  0.489    627   0.00   0.13   1.90   0.00   0.00   0.00   0.00   1.00   0.32  400.0   0.00      0    627    274.2   0.00   0.00 1.7912   0.021   0.011   0.009   0.008   0.007   0.006   0.005   0.005   0.003   0.003      0      0      0       0       0  22.211    7.000
   15 234   158   157  90.000     7  0.000    684   1754   2936    669   3065   6001   6540   6540   44.9  0.489    627   0.00   0.13   1.90   0.00   0.00   0.00   0.00   1.00   0.32  400.0   0.00      0    627    274.2   0.00   0.00 1.7912   0.021   0.011   0.009   0.008   0.007   0.006   0.005   0.005   0.003   0.003      0      0      0       0       0  22.211    7.000
   15 235   159   158  90.000     7  0.000    684   1754   2936    669   3065   6001   6540   6540   44.9  0.489    627   0.00   0.13   1.90   0.00   0.00   0.00   0.00   1.00   0.32  400.0   0.00      0    627    274.2   0.00   0.00 1.7912   0.021   0.011   0.009   0.008   0.007   0.006   0.005   0.005   0.003   0.003      0      0      0       0       0  22.211    7.000
   15 236   160   159  90.000     7  0.000    684   1754   2936    669   3065   6001   6540   6540   44.9  0.489    627   0.00   0.13   1.90   0.00   0.00   0.00   0.00   1.00   0.32  400.0   0.00      0    627    274.2   0.00   0.00 1.7912   0.021   0.011   0.009   0.008   0.007   0.006   0.005   0.005   0.003   0.003      0      0      0       0       0  22.211    7.000
   15 237   161   160  90.000     7  0.000    684   1754   2936    669   3065   6001   6540   6540   44.9  0.489    627   0.00   0.13   1.90   0.00   0.00   0.00   0.00   1.00   0.32  400.0   0.00      0    627    274.2   0.00   0.00 1.7912   0.021   0.011   0.009   0.008   0.007   0.006   0.005   0.005   0.003   0.003      0      0      0       0       0  22.211    7.000
