*Soil Inorganic Nitrogen daily output file

*DSSAT Cropping System Model Ver. 4.8.5.000 -release  NOV 27, 2025 15:48:13

*RUN   1        : 1                         WHAPS048 TUDU1501    1
 MODEL          : WHAPS048 - Wheat
 EXPERIMENT     : TUDU1501 WH
 DATA PATH      :
 TREATMENT  1   : 1                         WHAPS048
  
!                                                                                                                                      NO3 (ppm) at soil dep. (cm):                                                    NH4 (ppm) at soil dep. (cm):                                                    Total Inorganic N @dep(ppm):
!                                                                                                                                       0-5    5-15   15-20   20-30   30-40   40-50   50-60   60-70   70-90  90-210     0-5    5-15   15-20   20-30   30-40   40-50   50-60   60-70   70-90  90-210     0-5    5-15   15-20   20-30   30-40   40-50   50-60   60-70   70-90  90-210
@YEAR DOY   DAS  NAPC  NI#M    NIAD    NITD    NHTD   NURTD    NMNC    NITC    NDNC    NIMC    AMLC   NNMNC    NUCM    NLCC    TDNC    NI1D    NI2D    NI3D    NI4D    NI5D    NI6D    NI7D    NI8D    NI9D    NI10    NH1D    NH2D    NH3D    NH4D    NH5D    NH6D    NH7D    NH8D    NH9D    NH10    NT1D    NT2D    NT3D    NT4D    NT5D    NT6D    NT7D    NT8D    NT9D    NT10    
   15 076     0     0     0   102.6    93.5     9.1     0.0    0.00    0.00    0.00    0.00    0.00    0.00    0.00    0.00    0.00    3.10     3.1     3.1    3.10    3.10    3.10    3.10    3.10    3.10    3.10    0.30    0.30    0.30    0.30    0.30    0.30    0.30    0.30    0.30    0.30    3.40    3.40    3.40    3.40    3.40    3.40    3.40    3.40    3.40    3.40
   15 077     1     0     0   102.6    94.7     7.9     0.0    0.07    1.12    0.00    0.06    0.00    0.01    0.00    0.00    0.00    3.13     3.1     3.1    3.14    3.13    3.14    3.14    3.14    3.14    3.14    0.24    0.24    0.26    0.26    0.27    0.26    0.26    0.26    0.26    0.26    3.37    3.37    3.40    3.40    3.40    3.40    3.40    3.40    3.40    3.40
   15 078     2     0     0   102.6    95.6     7.0     0.0    0.13    2.06    0.00    0.10    0.00    0.03    0.00    0.00    0.00    3.79     3.1     3.2    3.13    3.14    3.15    3.15    3.16    3.16    3.16    0.20    0.19    0.23    0.23    0.24    0.23    0.23    0.24    0.23    0.24    3.98    3.27    3.40    3.36    3.38    3.38    3.39    3.39    3.39    3.39
   15 079     3     0     0   102.6    96.4     6.3     0.0    0.19    2.86    0.00    0.13    0.00    0.06    0.00    0.00    0.00    4.45     3.0     3.2    3.11    3.14    3.16    3.16    3.18    3.17    3.18    0.16    0.16    0.21    0.21    0.21    0.21    0.21    0.21    0.21    0.21    4.62    3.18    3.41    3.32    3.36    3.37    3.37    3.39    3.38    3.39
   15 080     4     0     0   102.7    97.1     5.6     0.0    0.23    3.52    0.00    0.15    0.00    0.08    0.00    0.00    0.00    4.52     3.0     3.2    3.13    3.16    3.18    3.18    3.20    3.19    3.20    0.14    0.13    0.19    0.19    0.19    0.19    0.19    0.19    0.19    0.19    4.66    3.16    3.40    3.32    3.36    3.37    3.37    3.39    3.38    3.39
   15 081     5     0     0   102.7    97.6     5.1     0.0    0.26    4.08    0.00    0.16    0.00    0.11    0.00    0.00    0.00    4.58     3.0     3.2    3.14    3.18    3.19    3.20    3.22    3.21    3.22    0.12    0.12    0.17    0.17    0.18    0.17    0.17    0.17    0.17    0.17    4.71    3.14    3.39    3.32    3.36    3.36    3.37    3.39    3.38    3.39
   15 082     6     0     0   102.7    98.1     4.6     0.0    0.28    4.55    0.00    0.16    0.00    0.12    0.00    0.00    0.00    4.63     3.0     3.2    3.16    3.19    3.21    3.21    3.23    3.23    3.23    0.11    0.11    0.16    0.16    0.16    0.16    0.16    0.16    0.16    0.16    4.75    3.12    3.39    3.31    3.35    3.36    3.37    3.39    3.38    3.39
   15 083     7     0     0   102.7    98.5     4.2     0.0    0.29    4.96    0.00    0.16    0.00    0.13    0.00    0.00    0.00    4.69     3.0     3.2    3.16    3.20    3.22    3.23    3.24    3.24    3.25    0.10    0.10    0.15    0.15    0.15    0.14    0.15    0.15    0.14    0.14    4.80    3.11    3.38    3.31    3.35    3.36    3.37    3.39    3.38    3.39
   15 084     8     0     0   102.7    98.9     3.9     0.0    0.29    5.33    0.00    0.16    0.00    0.13    0.00    0.00    0.00    4.75     3.0     3.2    3.17    3.21    3.23    3.24    3.25    3.25    3.26    0.10    0.09    0.14    0.13    0.14    0.13    0.13    0.13    0.13    0.13    4.85    3.09    3.38    3.31    3.35    3.36    3.37    3.39    3.38    3.39
   15 085     9     0     0   102.7    99.2     3.5     0.0    0.31    5.69    0.00    0.16    0.00    0.15    0.00    0.00    0.00    4.81     3.0     3.2    3.18    3.22    3.24    3.25    3.27    3.26    3.27    0.09    0.09    0.13    0.12    0.13    0.12    0.12    0.12    0.12    0.12    4.90    3.08    3.37    3.30    3.35    3.36    3.37    3.39    3.38    3.39
   15 086    10     0     0   102.7    99.5     3.2     0.0    0.32    6.01    0.00    0.16    0.00    0.16    0.00    0.00    0.00    4.85     3.0     3.3    3.19    3.23    3.25    3.26    3.28    3.27    3.28    0.08    0.08    0.12    0.11    0.12    0.11    0.11    0.11    0.11    0.11    4.94    3.07    3.37    3.30    3.35    3.36    3.37    3.39    3.38    3.39
   15 087    11     0     0   102.8    99.8     2.9     0.0    0.34    6.31    0.00    0.17    0.00    0.18    0.00    0.00    0.00    4.91     3.0     3.3    3.20    3.24    3.26    3.27    3.29    3.28    3.29    0.07    0.07    0.11    0.10    0.11    0.10    0.10    0.10    0.10    0.10    4.99    3.05    3.36    3.30    3.35    3.36    3.37    3.39    3.38    3.39
   15 088    12     0     0   102.8   100.1     2.7     0.0    0.37    6.60    0.00    0.17    0.00    0.20    0.00    0.00    0.00    4.97     3.0     3.3    3.20    3.25    3.27    3.28    3.29    3.29    3.30    0.07    0.06    0.10    0.10    0.10    0.09    0.09    0.09    0.09    0.09    5.03    3.03    3.36    3.30    3.35    3.36    3.37    3.39    3.38    3.39
   15 089    13     0     0   102.8   100.4     2.4     0.0    0.40    6.86    0.00    0.18    0.00    0.23    0.00    0.00    0.00    4.38     3.3     3.3    3.21    3.26    3.27    3.29    3.30    3.30    3.31    0.06    0.05    0.09    0.09    0.09    0.08    0.09    0.09    0.08    0.08    4.44    3.33    3.35    3.29    3.35    3.36    3.37    3.39    3.38    3.39
   15 090    14     0     0   102.6   100.4     2.2     0.0    0.43    7.10    0.00    0.19    0.00    0.24    0.18    0.00    0.00    3.73     3.5     3.3    3.21    3.26    3.28    3.29    3.31    3.31    3.32    0.04    0.04    0.08    0.08    0.08    0.08    0.08    0.08    0.07    0.07    3.77    3.53    3.35    3.29    3.34    3.36    3.37    3.39    3.38    3.39
   15 091    15     0     0   102.6   100.6     2.0     0.0    0.47    7.32    0.00    0.20    0.00    0.27    0.24    0.00    0.00    3.50     3.6     3.4    3.20    3.26    3.28    3.29    3.31    3.31    3.32    0.03    0.03    0.07    0.07    0.07    0.07    0.07    0.07    0.07    0.07    3.53    3.63    3.50    3.27    3.33    3.35    3.36    3.38    3.38    3.39
   15 092    16     0     0   102.5   100.7     1.8     0.0    0.49    7.51    0.00    0.21    0.00    0.28    0.38    0.00    0.00    3.25     3.6     3.7    3.27    3.25    3.28    3.29    3.31    3.31    3.32    0.03    0.02    0.07    0.07    0.07    0.06    0.07    0.07    0.06    0.06    3.28    3.60    3.73    3.33    3.32    3.34    3.35    3.38    3.37    3.38
   15 093    17     0     0   102.5   100.8     1.7     0.0    0.51    7.68    0.00    0.21    0.00    0.30    0.41    0.00    0.00    3.16     3.4     3.6    3.49    3.34    3.28    3.29    3.31    3.31    3.32    0.03    0.02    0.06    0.06    0.06    0.06    0.06    0.06    0.06    0.06    3.19    3.43    3.63    3.55    3.40    3.34    3.35    3.37    3.37    3.38
   15 094    18     0     0   102.4   100.9     1.5     0.0    0.51    7.82    0.00    0.21    0.00    0.30    0.45    0.00    0.00    3.35     3.4     3.7    3.51    3.35    3.27    3.28    3.31    3.30    3.31    0.02    0.02    0.06    0.06    0.06    0.05    0.05    0.06    0.05    0.05    3.37    3.43    3.76    3.57    3.40    3.32    3.33    3.37    3.35    3.37
   15 095    19     0     0   102.3   100.9     1.4     0.0    0.51    7.95    0.00    0.21    0.00    0.30    0.54    0.00    0.00    3.23     3.3     3.6    3.50    3.36    3.39    3.39    3.31    3.30    3.32    0.02    0.02    0.06    0.05    0.05    0.05    0.05    0.05    0.05    0.05    3.25    3.30    3.63    3.56    3.42    3.44    3.44    3.36    3.35    3.36
   15 096    20     0     0   102.3   101.0     1.3     0.0    0.51    8.06    0.00    0.21    0.00    0.30    0.58    0.00    0.00    3.50     3.2     3.5    3.49    3.37    3.40    3.40    3.31    3.30    3.31    0.02    0.02    0.05    0.05    0.05    0.05    0.05    0.05    0.04    0.04    3.52    3.26    3.59    3.54    3.42    3.45    3.45    3.35    3.34    3.36
   15 097    21     0     0   102.3   101.1     1.2     0.0    0.51    8.16    0.00    0.21    0.00    0.30    0.62    0.00    0.00    3.79     3.2     3.5    3.48    3.36    3.39    3.40    3.31    3.29    3.31    0.02    0.01    0.05    0.05    0.05    0.04    0.04    0.04    0.04    0.04    3.81    3.23    3.57    3.52    3.41    3.44    3.44    3.35    3.34    3.35
   15 098    22    40     1   125.1   101.2    23.9    16.4    0.51    8.25    0.00    0.21    0.80    0.30    0.65    0.00    0.00    4.45     3.2     3.5    3.44    3.34    3.38    3.38    3.30    3.29    3.30   35.37    0.01    0.05    0.04    0.04    0.04    0.04    0.04    0.04    0.04   39.82    3.17    3.56    3.48    3.38    3.42    3.42    3.34    3.32    3.34
   15 099    23    40     1   131.4   102.7    28.7     9.4    0.51    9.77    0.00    0.21    1.29    0.30    0.72    0.00    0.00    6.76     3.1     3.5    3.44    3.34    3.38    3.39    3.30    3.29    3.31   43.01    0.01    0.04    0.04    0.04    0.04    0.04    0.04    0.03    0.03   49.78    3.15    3.55    3.48    3.38    3.42    3.42    3.34    3.32    3.34
   15 100    24    40     1   134.9   104.7    30.2     5.2    0.52   11.80    0.00    0.21    1.73    0.30    1.03    0.00    0.00    9.78     3.1     3.5    3.44    3.35    3.38    3.39    3.30    3.29    3.31   45.48    0.01    0.04    0.04    0.04    0.03    0.03    0.03    0.03    0.03   55.26    3.12    3.54    3.48    3.38    3.42    3.42    3.34    3.32    3.34
   15 101    25    40     1   136.6   106.9    29.7     2.6    0.55   14.27    0.00    0.22    1.92    0.32    1.78    0.00    0.00   13.21     3.0     3.5    3.44    3.35    3.39    3.39    3.31    3.29    3.31   44.75    0.01    0.04    0.03    0.03    0.03    0.03    0.03    0.03    0.03   57.96    3.04    3.54    3.47    3.38    3.42    3.42    3.34    3.32    3.34
   15 102    26    40     1   137.3   109.5    27.9     1.2    0.60   17.11    0.00    0.24    2.09    0.36    2.31    0.00    0.00   17.29     3.0     3.5    3.44    3.35    3.39    3.39    3.31    3.30    3.31   41.95    0.00    0.03    0.03    0.03    0.03    0.03    0.03    0.03    0.03   59.25    2.96    3.53    3.47    3.38    3.42    3.42    3.34    3.32    3.34
   15 103    27    40     1   137.2   112.1    25.1     0.5    0.68   20.16    0.00    0.26    2.23    0.42    3.06    0.00    0.00   21.57     2.8     3.5    3.44    3.35    3.39    3.40    3.31    3.30    3.32   37.65    0.00    0.03    0.03    0.03    0.03    0.03    0.03    0.03    0.03   59.22    2.81    3.52    3.47    3.38    3.42    3.43    3.34    3.33    3.34
   15 104    28    40     1   136.6   114.5    22.1     0.2    0.78   23.08    0.00    0.29    2.35    0.49    3.86    0.00    0.00   25.64     2.6     3.5    3.44    3.35    3.39    3.40    3.32    3.30    3.32   33.05    0.00    0.03    0.02    0.03    0.02    0.03    0.03    0.03    0.03   58.69    2.58    3.50    3.46    3.38    3.42    3.43    3.35    3.33    3.35
   15 105    29    40     1   136.2   116.6    19.6     0.1    0.89   25.52    0.00    0.30    2.47    0.58    4.36    0.00    0.00   29.18     2.4     3.4    3.43    3.36    3.40    3.40    3.32    3.31    3.32   29.19    0.00    0.03    0.02    0.03    0.02    0.03    0.03    0.03    0.03   58.37    2.35    3.46    3.45    3.38    3.42    3.43    3.35    3.33    3.35
   15 106    30    40     1   135.9   118.4    17.5     0.0    1.01   27.61    0.00    0.32    2.58    0.69    4.69    0.00    0.00   32.31     2.2     3.4    3.42    3.36    3.40    3.41    3.32    3.31    3.33   25.93    0.00    0.03    0.02    0.03    0.02    0.03    0.03    0.03    0.03   58.24    2.15    3.42    3.44    3.39    3.42    3.43    3.35    3.34    3.36
   15 107    31    40     1   135.6   119.9    15.8     0.0    1.15   29.44    0.00    0.33    2.66    0.82    4.99    0.00    0.00   11.65    11.5     5.7    3.96    3.47    3.44    3.41    3.33    3.31    3.33   23.14    0.00    0.03    0.02    0.03    0.02    0.03    0.03    0.03    0.03   34.78   11.51    5.78    3.98    3.50    3.46    3.44    3.36    3.34    3.36
   15 108    32    40     1   132.2   119.1    13.1     0.0    1.30   30.53    0.00    0.35    2.67    0.94    8.50    0.00    0.00   11.16     9.8     6.2    4.12    3.57    3.47    3.50    3.54    3.52    3.34   18.99    0.00    0.03    0.02    0.03    0.02    0.03    0.03    0.03    0.03   30.15    9.84    6.25    4.15    3.60    3.49    3.53    3.57    3.55    3.37
   15 109    33    40     1   131.5   120.1    11.4     0.0    1.42   31.91    0.00    0.37    2.69    1.05    9.34    0.00    0.00   13.72     9.0     6.1    4.21    3.60    3.48    3.50    3.55    3.52    3.44   16.32    0.00    0.03    0.02    0.03    0.02    0.03    0.03    0.03    0.03   30.04    9.02    6.15    4.23    3.63    3.51    3.53    3.58    3.55    3.47
   15 110    34    40     1   130.5   120.7     9.8     0.0    1.52   33.14    0.00    0.39    2.72    1.14   10.39    0.00    0.00   16.79     8.4     5.8    4.16    3.60    3.47    3.49    3.54    3.51    3.43   13.79    0.00    0.03    0.02    0.03    0.03    0.03    0.03    0.03    0.03   30.58    8.37    5.81    4.19    3.63    3.50    3.52    3.57    3.54    3.46
   15 111    35    40     1   129.0   120.7     8.3     0.0    1.61   34.07    0.00    0.39    2.74    1.21   11.91    0.00    0.00   19.05     7.7     5.5    4.06    3.57    3.45    3.48    3.53    3.50    3.42   11.53    0.00    0.03    0.02    0.03    0.03    0.03    0.03    0.03    0.03   30.58    7.74    5.50    4.09    3.60    3.48    3.50    3.56    3.52    3.45
   15 112    36    40     1   127.0   120.0     6.9     0.0    1.67   34.80    0.00    0.39    2.74    1.28   13.99    0.00    0.00   18.71     7.4     5.4    4.03    3.56    3.45    3.48    3.53    3.50    3.42    9.48    0.00    0.03    0.02    0.03    0.02    0.03    0.03    0.03    0.03   28.19    7.42    5.41    4.05    3.59    3.48    3.51    3.56    3.53    3.45
   15 113    37    40     1   124.5   118.8     5.8     0.0    1.74   35.40    0.00    0.39    2.75    1.34   16.50    0.00    0.00   18.11     6.9     5.2    3.95    3.55    3.46    3.48    3.54    3.50    3.42    7.71    0.00    0.03    0.02    0.03    0.02    0.03    0.03    0.02    0.03   25.82    6.86    5.24    3.97    3.58    3.48    3.51    3.57    3.53    3.45
   15 114    38    40     1   123.3   118.2     5.1     0.0    1.81   35.94    0.00    0.39    2.76    1.42   17.84    0.00    0.00   18.31     6.4     5.0    3.88    3.53    3.46    3.48    3.54    3.50    3.42    6.66    0.00    0.03    0.02    0.03    0.02    0.03    0.03    0.02    0.03   24.98    6.43    5.07    3.90    3.56    3.48    3.51    3.57    3.53    3.45
   15 115    39    40     1   121.3   116.9     4.5     0.0    1.90   36.44    0.00    0.39    2.76    1.50   19.84    0.00    0.00   18.46     5.7     4.7    3.73    3.49    3.46    3.48    3.54    3.51    3.43    5.73    0.00    0.03    0.02    0.03    0.02    0.03    0.03    0.02    0.03   24.19    5.66    4.75    3.75    3.52    3.48    3.51    3.57    3.53    3.45
   15 116    40    40     1   119.2   115.3     3.9     0.0    2.00   36.89    0.00    0.39    2.76    1.61   22.06    0.00    0.00   18.26     5.0     4.4    3.55    3.41    3.46    3.49    3.54    3.51    3.43    4.79    0.00    0.03    0.02    0.03    0.03    0.03    0.03    0.02    0.03   23.05    4.98    4.40    3.57    3.44    3.49    3.52    3.57    3.53    3.46
   15 117    41    40     1   117.0   113.7     3.3     0.0    2.13   37.31    0.00    0.39    2.77    1.74   24.41    0.00    0.00   16.89     4.8     4.0    3.37    3.33    3.46    3.49    3.55    3.51    3.43    3.85    0.01    0.03    0.03    0.03    0.03    0.03    0.03    0.03    0.03   20.74    4.79    4.06    3.39    3.36    3.49    3.52    3.58    3.54    3.46
   15 118    42    40     1   112.4   110.2     2.2     0.0    2.28   37.59    0.00    0.39    2.77    1.89   29.19    0.00    0.00   10.30     5.5     3.8    3.26    3.27    3.46    3.49    3.55    3.52    3.44    2.02    0.01    0.03    0.03    0.03    0.03    0.03    0.03    0.03    0.03   12.32    5.56    3.88    3.29    3.31    3.48    3.52    3.58    3.54    3.47
   15 119    43    40     1   110.3   108.5     1.8     0.0    2.45   37.80    0.00    0.39    2.78    2.05   31.42    0.00    0.00    8.43     5.4     3.7    3.17    3.22    3.44    3.49    3.55    3.51    3.44    1.43    0.02    0.04    0.03    0.04    0.03    0.03    0.03    0.03    0.03    9.86    5.40    3.70    3.20    3.26    3.47    3.53    3.59    3.54    3.47
   15 120    44    40     1   109.1   107.5     1.6     0.0    2.60   38.01    0.00    0.39    2.79    2.21   32.79    0.00    0.00    7.77     5.2     3.5    3.12    3.19    3.43    3.49    3.55    3.51    3.43    1.03    0.03    0.04    0.03    0.04    0.03    0.03    0.04    0.03    0.03    8.80    5.20    3.57    3.15    3.23    3.46    3.52    3.58    3.54    3.46
   15 121    45    40     1   106.1   104.8     1.3     0.0    2.76   38.17    0.00    0.39    2.80    2.37   35.94    0.00    0.00    2.27     3.7     5.0    3.82    3.61    3.57    3.55    3.54    3.50    3.43    0.52    0.03    0.04    0.03    0.04    0.03    0.04    0.04    0.03    0.03    2.78    3.76    5.08    3.85    3.65    3.60    3.58    3.58    3.53    3.46
   15 122    46    40     1   104.5   103.3     1.2     0.0    2.89   38.29    0.00    0.39    2.80    2.50   37.65    0.00    0.00    1.56     3.1     4.4    3.70    3.56    3.63    3.67    3.65    3.50    3.43    0.34    0.04    0.04    0.04    0.04    0.03    0.04    0.04    0.03    0.03    1.90    3.14    4.48    3.74    3.60    3.66    3.70    3.68    3.53    3.46
   15 123    47    40     1   102.5   101.5     1.1     0.0    3.00   38.39    0.00    0.39    2.81    2.60   39.70    0.00    0.00    0.63     2.3     3.7    3.60    3.52    3.66    3.79    3.75    3.57    3.43    0.14    0.04    0.05    0.04    0.04    0.03    0.04    0.04    0.03    0.03    0.77    2.32    3.76    3.63    3.56    3.69    3.82    3.79    3.60    3.46
   15 124    48    40     1   101.5   100.4     1.1     0.0    3.14   38.49    0.00    0.39    2.81    2.74   40.91    0.00    0.00    0.50     1.8     2.9    3.08    3.11    3.29    3.52    3.60    3.53    3.55    0.10    0.04    0.05    0.04    0.04    0.04    0.04    0.04    0.03    0.03    0.59    1.84    2.92    3.12    3.15    3.32    3.56    3.64    3.56    3.58
   15 125    49    40     1    99.6    98.6     1.0     0.0    3.34   38.61    0.00    0.39    2.82    2.94   42.95    0.00    0.00    0.24     1.3     2.4    2.72    2.87    3.15    3.54    3.65    3.56    3.57    0.03    0.05    0.05    0.04    0.04    0.04    0.04    0.04    0.03    0.03    0.27    1.39    2.46    2.76    2.91    3.19    3.58    3.69    3.59    3.60
   15 126    50    40     1    97.9    96.8     1.1     0.0    3.59   38.74    0.02    0.39    2.82    3.20   44.90    0.00    0.00    0.11     0.7     1.5    2.36    2.78    3.09    3.57    3.72    3.60    3.59    0.02    0.05    0.05    0.04    0.04    0.04    0.04    0.04    0.03    0.04    0.13    0.74    1.55    2.40    2.82    3.13    3.62    3.77    3.63    3.62
   15 127    51    40     1    94.9    93.6     1.2     0.0    3.87   38.88    0.07    0.39    2.82    3.48   45.82    2.33    0.00    0.10     0.6     1.1    1.89    2.28    2.61    3.13    3.43    3.49    3.55    0.04    0.07    0.06    0.05    0.05    0.04    0.05    0.05    0.04    0.04    0.14    0.62    1.19    1.93    2.33    2.65    3.18    3.48    3.53    3.59
   15 128    52    40     1    92.2    90.9     1.3     0.0    4.18   39.04    0.09    0.39    2.83    3.79   47.39    3.69    0.00    0.06     0.4     0.9    1.52    1.89    2.25    2.85    3.28    3.45    3.53    0.03    0.07    0.06    0.05    0.05    0.04    0.05    0.05    0.04    0.04    0.09    0.49    0.94    1.57    1.94    2.29    2.90    3.33    3.49    3.57
   15 129    53    40     1    90.7    89.3     1.4     0.0    4.51   39.22    0.10    0.39    2.83    4.12   49.28    3.69    0.00    0.03     0.3     0.7    1.23    1.59    1.98    2.69    3.29    3.47    3.53    0.03    0.07    0.05    0.05    0.05    0.04    0.05    0.06    0.04    0.04    0.06    0.36    0.75    1.27    1.64    2.02    2.75    3.35    3.51    3.57
   15 130    54    40     1    88.8    87.4     1.4     0.0    4.83   39.40    0.10    0.39    2.83    4.43   51.18    4.00    0.00    0.01     0.2     0.5    0.94    1.27    1.66    2.42    3.22    3.46    3.53    0.04    0.07    0.05    0.05    0.05    0.04    0.05    0.06    0.05    0.05    0.05    0.26    0.56    0.98    1.32    1.70    2.47    3.28    3.51    3.57
   15 131    55    40     1    87.2    85.8     1.4     0.0    5.11   39.56    0.10    0.39    2.83    4.72   53.02    4.00    0.00    0.01     0.1     0.4    0.71    1.01    1.39    2.17    3.21    3.46    3.53    0.03    0.07    0.04    0.04    0.05    0.04    0.05    0.06    0.05    0.05    0.04    0.19    0.42    0.75    1.05    1.43    2.22    3.27    3.51    3.57
   15 132    56    40     1    85.9    84.5     1.4     0.0    5.42   39.75    0.10    0.39    2.83    5.02   54.62    4.00    0.00    0.01     0.1     0.3    0.53    0.80    1.16    1.91    3.17    3.46    3.53    0.03    0.07    0.04    0.04    0.04    0.04    0.05    0.06    0.05    0.05    0.04    0.16    0.32    0.57    0.84    1.20    1.96    3.24    3.51    3.58
   15 133    57    40     1    84.9    83.4     1.4     0.0    5.76   39.95    0.10    0.39    2.83    5.36   56.01    4.00    0.00    0.01     0.1     0.2    0.41    0.64    0.97    1.69    3.10    3.46    3.53    0.05    0.08    0.04    0.04    0.04    0.04    0.05    0.06    0.05    0.05    0.06    0.15    0.25    0.45    0.68    1.01    1.73    3.16    3.51    3.58
   15 134    58    40     1    83.9    82.4     1.5     0.0    6.12   40.16    0.10    0.39    2.83    5.73   57.31    4.00    0.00    0.00     0.1     0.2    0.33    0.52    0.81    1.48    2.95    3.46    3.53    0.04    0.08    0.05    0.04    0.05    0.04    0.05    0.06    0.06    0.05    0.04    0.13    0.22    0.37    0.56    0.85    1.53    3.01    3.52    3.58
   15 135    59    40     1    83.0    81.5     1.5     0.0    6.50   40.38    0.10    0.39    2.83    6.10   58.58    4.00    0.00    0.00     0.0     0.1    0.26    0.42    0.68    1.28    2.74    3.47    3.54    0.04    0.08    0.05    0.04    0.05    0.04    0.05    0.06    0.06    0.05    0.04    0.13    0.19    0.30    0.46    0.72    1.33    2.80    3.52    3.59
   15 136    60    40     1    82.2    80.7     1.5     0.0    6.86   40.60    0.10    0.39    2.83    6.47   59.78    4.00    0.00    0.00     0.0     0.1    0.21    0.34    0.56    1.09    2.47    3.48    3.55    0.04    0.08    0.05    0.05    0.05    0.04    0.05    0.06    0.06    0.05    0.04    0.12    0.16    0.25    0.38    0.60    1.14    2.53    3.53    3.60
   15 137    61    40     1    81.4    79.9     1.5     0.0    7.23   40.82    0.10    0.39    2.83    6.83   60.89    4.00    0.00    0.00     0.0     0.1    0.16    0.27    0.46    0.92    2.20    3.49    3.56    0.05    0.09    0.05    0.05    0.05    0.04    0.04    0.06    0.06    0.05    0.05    0.12    0.14    0.21    0.32    0.50    0.97    2.26    3.54    3.61
   15 138    62    40     1    80.8    79.2     1.5     0.0    7.56   41.04    0.10    0.39    2.83    7.17   61.90    4.00    0.00    0.00     0.0     0.1    0.13    0.22    0.37    0.78    1.94    3.49    3.56    0.06    0.09    0.05    0.05    0.05    0.04    0.04    0.05    0.06    0.05    0.06    0.12    0.12    0.18    0.27    0.42    0.83    1.99    3.54    3.62
   15 139    63    40     1    80.1    78.6     1.5     0.0    7.88   41.25    0.10    0.39    2.83    7.48   62.84    4.00    0.00    0.01     0.0     0.1    0.11    0.18    0.31    0.66    1.68    3.47    3.57    0.06    0.09    0.05    0.05    0.05    0.04    0.04    0.05    0.06    0.05    0.07    0.11    0.12    0.16    0.22    0.35    0.70    1.73    3.53    3.63
   15 140    64    40     1    79.5    78.0     1.5     0.0    8.20   41.45    0.10    0.39    2.83    7.81   63.77    4.00    0.00    0.01     0.0     0.0    0.09    0.16    0.26    0.56    1.46    3.44    3.58    0.07    0.08    0.04    0.04    0.05    0.04    0.04    0.05    0.06    0.05    0.08    0.10    0.07    0.14    0.20    0.30    0.60    1.51    3.50    3.63
   15 141    65    40     1    79.0    77.5     1.5     0.0    8.50   41.64    0.10    0.39    2.83    8.10   64.61    4.00    0.00    0.01     0.0     0.0    0.07    0.12    0.22    0.48    1.27    3.39    3.58    0.08    0.10    0.05    0.04    0.04    0.04    0.04    0.04    0.06    0.05    0.09    0.11    0.07    0.11    0.16    0.26    0.52    1.31    3.45    3.64
   15 142    66    40     1    78.2    76.7     1.5     0.0    8.78   41.82    0.10    0.39    2.83    8.39   65.42    4.27    0.00    0.01     0.0     0.0    0.05    0.08    0.16    0.38    1.03    3.21    3.58    0.06    0.10    0.05    0.04    0.04    0.04    0.04    0.04    0.06    0.05    0.07    0.11    0.08    0.09    0.11    0.19    0.42    1.08    3.27    3.64
   15 143    67    40     1    77.6    76.1     1.4     0.0    9.04   41.99    0.10    0.39    2.83    8.64   66.30    4.27    0.00    0.00     0.0     0.0    0.03    0.05    0.11    0.30    0.88    3.15    3.59    0.03    0.08    0.05    0.04    0.03    0.03    0.04    0.04    0.05    0.05    0.03    0.10    0.07    0.07    0.09    0.15    0.33    0.92    3.21    3.64
   15 144    68    40     1    77.0    75.6     1.3     0.0    9.26   42.14    0.10    0.39    2.83    8.87   67.10    4.27    0.00    0.00     0.0     0.0    0.02    0.04    0.08    0.23    0.74    3.08    3.59    0.04    0.07    0.04    0.03    0.03    0.03    0.03    0.04    0.05    0.05    0.04    0.08    0.06    0.06    0.07    0.11    0.26    0.78    3.13    3.65
   15 145    69    40     1    75.7    74.4     1.3     0.0    9.48   42.28    0.10    0.39    2.83    9.08   67.84    5.00    0.00    0.00     0.0     0.0    0.02    0.03    0.06    0.17    0.57    2.83    3.55    0.03    0.06    0.04    0.03    0.03    0.03    0.03    0.03    0.05    0.05    0.03    0.06    0.05    0.05    0.06    0.08    0.20    0.60    2.88    3.60
   15 146    70    40     1    75.1    73.8     1.3     0.0    9.74   42.43    0.10    0.39    2.83    9.34   68.52    5.26    0.00    0.00     0.0     0.0    0.01    0.02    0.04    0.13    0.47    2.68    3.53    0.03    0.05    0.03    0.03    0.03    0.03    0.03    0.03    0.05    0.05    0.03    0.06    0.04    0.04    0.05    0.07    0.15    0.50    2.73    3.58
   15 147    71    40     1    74.7    73.4     1.3     0.0   10.02   42.57    0.10    0.39    2.83    9.62   69.17    5.26    0.00    0.00     0.0     0.0    0.01    0.01    0.03    0.10    0.39    2.57    3.54    0.03    0.05    0.03    0.03    0.03    0.03    0.03    0.03    0.05    0.05    0.03    0.06    0.04    0.04    0.04    0.06    0.13    0.42    2.62    3.59
   15 148    72    40     1    74.3    73.1     1.3     0.0   10.30   42.72    0.10    0.39    2.83    9.90   69.81    5.26    0.00    0.00     0.0     0.0    0.01    0.01    0.02    0.08    0.33    2.47    3.54    0.03    0.06    0.03    0.03    0.03    0.03    0.03    0.03    0.05    0.05    0.03    0.06    0.03    0.03    0.04    0.05    0.11    0.36    2.52    3.59
   15 149    73    40     1    74.0    72.7     1.3     0.0   10.58   42.87    0.10    0.39    2.83   10.19   70.43    5.26    0.00    0.00     0.0     0.0    0.01    0.01    0.02    0.06    0.29    2.36    3.55    0.03    0.06    0.03    0.03    0.03    0.03    0.03    0.03    0.05    0.05    0.03    0.06    0.03    0.03    0.04    0.04    0.09    0.32    2.40    3.60
   15 150    74    40     1    73.7    72.4     1.3     0.0   10.90   43.03    0.10    0.39    2.83   10.50   71.05    5.26    0.00    0.00     0.0     0.0    0.01    0.01    0.02    0.05    0.24    2.23    3.56    0.04    0.06    0.03    0.03    0.03    0.03    0.03    0.03    0.05    0.05    0.04    0.07    0.03    0.03    0.04    0.04    0.08    0.27    2.28    3.61
   15 151    75    40     1    73.4    72.1     1.3     0.0   11.22   43.19    0.10    0.39    2.83   10.83   71.67    5.26    0.00    0.00     0.0     0.0    0.01    0.01    0.01    0.04    0.19    2.11    3.56    0.05    0.07    0.03    0.03    0.03    0.03    0.03    0.03    0.05    0.05    0.05    0.07    0.03    0.03    0.04    0.04    0.07    0.23    2.15    3.62
   15 152    76    80     2   109.8    71.9    37.9     3.1   11.57   43.36    0.10    0.39    3.06   11.18   72.28    5.26    0.00    0.20     0.0     0.0    0.01    0.01    0.01    0.03    0.16    1.98    3.57   56.69    0.07    0.03    0.03    0.03    0.03    0.03    0.04    0.05    0.05   56.89    0.08    0.04    0.04    0.04    0.04    0.07    0.20    2.03    3.62
   15 153    77    80     2   107.9    77.2    30.7     0.7   12.00   49.09    0.10    0.39    3.24   11.61   76.79    5.26    0.00    8.84     0.0     0.0    0.01    0.01    0.01    0.03    0.13    1.86    3.58   45.40    0.09    0.04    0.04    0.04    0.03    0.04    0.04    0.05    0.06   54.24    0.10    0.04    0.04    0.05    0.04    0.06    0.17    1.91    3.63
   15 154    78    80     2   104.3    80.9    23.4     0.1   12.49   54.38    0.10    0.39    3.44   12.10   81.22    5.26    0.00   14.92     0.0     0.0    0.01    0.01    0.01    0.03    0.11    1.74    3.59   33.91    0.10    0.04    0.04    0.04    0.04    0.04    0.04    0.05    0.06   48.83    0.12    0.05    0.05    0.05    0.05    0.07    0.16    1.79    3.65
   15 155    79    80     2   101.6    83.9    17.7     0.0   13.02   58.82    0.10    0.39    3.58   12.62   84.37    5.26    0.00   19.85     0.0     0.0    0.01    0.01    0.01    0.03    0.10    1.63    3.60   24.96    0.11    0.05    0.05    0.05    0.04    0.04    0.05    0.05    0.06   44.81    0.14    0.06    0.06    0.06    0.06    0.07    0.15    1.68    3.66
   15 156    80    80     2   100.4    86.7    13.7     0.0   13.57   62.53    0.10    0.39    3.62   13.18   86.15    5.26    0.00   24.29     0.0     0.0    0.01    0.02    0.02    0.03    0.09    1.53    3.60   18.63    0.13    0.06    0.05    0.05    0.04    0.05    0.05    0.05    0.06   42.92    0.16    0.07    0.07    0.07    0.06    0.08    0.14    1.58    3.66
   15 157    81    80     2    99.9    89.0    11.0     0.0   14.17   65.47    0.10    0.39    3.65   13.78   87.14    5.26    0.00   28.03     0.0     0.0    0.02    0.02    0.02    0.03    0.08    1.42    3.59   14.26    0.14    0.06    0.06    0.06    0.05    0.05    0.05    0.06    0.06   42.30    0.18    0.08    0.08    0.08    0.07    0.08    0.14    1.48    3.65
   15 158    82    80     2    94.5    87.5     7.0     0.0   14.81   67.61    0.10    0.39    3.68   14.42   93.14    5.26    0.00   25.87     0.1     0.0    0.03    0.03    0.03    0.04    0.08    1.34    3.57    8.01    0.15    0.07    0.06    0.06    0.05    0.06    0.06    0.06    0.07   33.88    0.21    0.10    0.09    0.09    0.08    0.09    0.14    1.40    3.63
   15 159    83    80     2    91.5    86.5     5.0     0.0   15.45   69.12    0.10    0.39    3.71   15.06   96.77    5.26    0.00   13.16     5.6     0.1    0.03    0.03    0.03    0.04    0.08    1.25    3.53    4.80    0.15    0.07    0.07    0.07    0.06    0.06    0.06    0.06    0.07   17.96    5.77    0.20    0.10    0.10    0.09    0.10    0.14    1.31    3.60
   15 160    84    80     2    86.1    82.2     4.0     0.0   16.12   69.80    0.10    0.39    3.72   15.72  102.77    5.26    0.00    9.68     3.7     0.7    0.07    0.04    0.04    0.05    0.09    1.19    3.49    3.12    0.16    0.08    0.07    0.07    0.06    0.06    0.06    0.06    0.07   12.80    3.89    0.82    0.14    0.11    0.10    0.11    0.15    1.25    3.56
   15 161    85    80     2    80.7    77.9     2.8     0.0   16.73   70.34    0.10    0.39    3.74   16.34  108.77    5.26    0.00    5.34     2.6     0.7    0.10    0.05    0.05    0.06    0.09    1.16    3.46    1.28    0.17    0.07    0.07    0.07    0.06    0.06    0.07    0.06    0.07    6.61    2.78    0.76    0.17    0.13    0.11    0.12    0.16    1.22    3.53
   15 162    86    80     2    75.3    73.1     2.1     0.0   17.29   70.70    0.10    0.39    3.75   16.90  114.77    5.26    0.00    1.12     1.3     0.4    0.09    0.06    0.05    0.06    0.10    1.10    3.41    0.27    0.14    0.06    0.07    0.07    0.06    0.06    0.06    0.06    0.07    1.40    1.46    0.49    0.16    0.13    0.11    0.12    0.16    1.16    3.47
   15 163    87    80     2    72.7    70.7     1.9     0.0   17.82   71.01    0.10    0.39    3.75   17.42  117.91    5.26    0.00    0.01     0.5     0.2    0.07    0.06    0.05    0.06    0.09    1.02    3.30    0.08    0.11    0.05    0.06    0.07    0.06    0.06    0.06    0.06    0.07    0.09    0.58    0.26    0.14    0.12    0.11    0.12    0.16    1.08    3.37
   15 164    88    80     2    71.7    69.8     1.9     0.0   18.33   71.30    0.10    0.39    3.75   17.94  119.41    5.26    0.00    0.01     0.2     0.1    0.06    0.06    0.05    0.06    0.10    0.95    3.16    0.08    0.11    0.05    0.06    0.07    0.06    0.06    0.06    0.06    0.06    0.08    0.28    0.17    0.12    0.12    0.11    0.12    0.16    1.01    3.22
   15 165    89    80     2    70.9    69.1     1.9     0.0   18.87   71.61    0.10    0.39    3.75   18.48  120.70    5.26    0.00    0.01     0.0     0.1    0.07    0.06    0.05    0.06    0.10    0.88    2.99    0.09    0.10    0.05    0.06    0.06    0.06    0.06    0.06    0.06    0.06    0.10    0.15    0.10    0.12    0.13    0.11    0.12    0.16    0.94    3.05
   15 166    90    80     2    70.4    68.5     2.0     0.0   19.47   71.94    0.10    0.39    3.75   19.07  121.80    5.26    0.00    0.01     0.0     0.0    0.05    0.07    0.06    0.06    0.10    0.82    2.80    0.12    0.15    0.07    0.06    0.06    0.06    0.06    0.06    0.06    0.06    0.13    0.18    0.11    0.10    0.13    0.12    0.12    0.16    0.88    2.86
   15 167    91    80     2    69.9    67.8     2.0     0.0   20.07   72.26    0.10    0.39    3.75   19.67  122.95    5.26    0.00    0.01     0.0     0.0    0.04    0.05    0.05    0.07    0.10    0.76    2.60    0.13    0.17    0.08    0.07    0.07    0.05    0.06    0.06    0.06    0.06    0.14    0.21    0.11    0.11    0.12    0.11    0.13    0.16    0.82    2.66
   15 168    92    80     2    68.2    66.3     2.0     0.0   20.66   72.58    0.10    0.39    3.75   20.27  124.36    6.07    0.00    0.00     0.0     0.0    0.04    0.04    0.04    0.05    0.09    0.63    2.26    0.09    0.16    0.07    0.07    0.06    0.05    0.05    0.06    0.06    0.06    0.09    0.20    0.10    0.10    0.10    0.09    0.11    0.14    0.69    2.32
   15 169    93    80     2    67.4    65.5     1.9     0.0   21.21   72.87    0.10    0.39    3.75   20.82  125.77    6.07    0.00    0.00     0.0     0.0    0.03    0.03    0.03    0.05    0.08    0.57    2.06    0.08    0.13    0.06    0.06    0.06    0.05    0.05    0.05    0.05    0.06    0.08    0.15    0.08    0.09    0.09    0.08    0.10    0.13    0.63    2.12
   15 170    94    80     2    65.5    63.7     1.8     0.0   21.70   73.13    0.11    0.39    3.75   21.30  127.01    7.16    0.00    0.00     0.0     0.0    0.02    0.02    0.03    0.04    0.06    0.48    1.75    0.11    0.13    0.06    0.05    0.05    0.04    0.05    0.05    0.05    0.05    0.11    0.15    0.08    0.08    0.08    0.07    0.08    0.11    0.53    1.80
   15 171    95    80     2    64.3    62.6     1.7     0.0   22.13   73.36    0.11    0.39    3.75   21.73  128.24    7.61    0.00    0.00     0.0     0.0    0.02    0.02    0.02    0.03    0.05    0.41    1.53    0.06    0.10    0.05    0.04    0.04    0.04    0.04    0.05    0.05    0.05    0.06    0.12    0.07    0.06    0.06    0.06    0.07    0.10    0.46    1.58
   15 172    96    80     2    63.5    61.9     1.6     0.0   22.54   73.58    0.11    0.39    3.75   22.15  129.37    7.70    0.00    0.00     0.0     0.0    0.01    0.01    0.02    0.02    0.05    0.36    1.37    0.06    0.09    0.04    0.04    0.04    0.04    0.04    0.04    0.05    0.05    0.06    0.10    0.05    0.05    0.05    0.05    0.06    0.09    0.41    1.41
   15 173    97    80     2    62.8    61.3     1.5     0.0   22.94   73.78    0.11    0.39    3.75   22.54  130.43    7.70    0.00    0.00     0.0     0.0    0.01    0.01    0.01    0.02    0.04    0.33    1.22    0.06    0.07    0.04    0.03    0.04    0.03    0.04    0.04    0.05    0.05    0.06    0.08    0.04    0.04    0.05    0.05    0.06    0.08    0.37    1.27
   15 174    98    80     2    62.3    60.7     1.5     0.0   23.33   73.98    0.11    0.39    3.75   22.94  131.39    7.70    0.00    0.00     0.0     0.0    0.01    0.01    0.01    0.02    0.04    0.29    1.09    0.08    0.08    0.04    0.03    0.04    0.03    0.04    0.04    0.04    0.04    0.09    0.09    0.05    0.04    0.04    0.04    0.05    0.07    0.34    1.14
   15 175    99    80     2    61.0    59.5     1.5     0.0   23.73   74.17    0.11    0.39    3.75   23.34  132.37    8.35    0.00    0.00     0.0     0.0    0.01    0.01    0.01    0.02    0.03    0.25    0.94    0.08    0.09    0.04    0.03    0.04    0.03    0.04    0.04    0.04    0.04    0.08    0.09    0.05    0.04    0.04    0.04    0.05    0.07    0.29    0.98
   15 176   100    80     2    60.3    58.8     1.5     0.0   24.14   74.36    0.11    0.39    3.75   23.75  133.36    8.49    0.00    0.00     0.0     0.0    0.01    0.01    0.01    0.01    0.03    0.22    0.82    0.06    0.08    0.04    0.03    0.03    0.03    0.03    0.04    0.04    0.04    0.06    0.09    0.05    0.04    0.04    0.04    0.05    0.07    0.26    0.87
   15 177   101    80     2    59.8    58.3     1.5     0.0   24.57   74.56    0.11    0.39    3.75   24.18  134.33    8.49    0.00    0.00     0.0     0.0    0.01    0.01    0.01    0.01    0.03    0.19    0.73    0.06    0.08    0.04    0.03    0.04    0.03    0.04    0.04    0.04    0.04    0.06    0.08    0.04    0.04    0.04    0.04    0.05    0.06    0.24    0.77
   15 178   102    80     2    59.3    57.8     1.5     0.0   25.03   74.76    0.11    0.39    3.75   24.64  135.24    8.49    0.00    0.00     0.0     0.0    0.01    0.01    0.01    0.01    0.03    0.17    0.65    0.07    0.08    0.04    0.04    0.04    0.03    0.04    0.04    0.04    0.04    0.07    0.09    0.04    0.04    0.05    0.04    0.05    0.06    0.22    0.69
   15 179   103    80     2    58.9    57.4     1.5     0.0   25.50   74.97    0.11    0.39    3.75   25.10  136.08    8.49    0.00    0.00     0.0     0.0    0.01    0.01    0.01    0.01    0.02    0.16    0.58    0.07    0.09    0.04    0.04    0.04    0.04    0.04    0.04    0.04    0.04    0.07    0.10    0.05    0.05    0.05    0.05    0.05    0.07    0.20    0.62
   15 180   104    80     2    58.6    57.1     1.6     0.0   26.00   75.20    0.11    0.39    3.75   25.61  136.88    8.49    0.00    0.01     0.0     0.0    0.01    0.01    0.01    0.02    0.02    0.14    0.51    0.09    0.10    0.04    0.04    0.04    0.04    0.04    0.04    0.04    0.04    0.09    0.11    0.05    0.05    0.05    0.05    0.06    0.07    0.18    0.55
   15 181   105    80     2    58.4    56.8     1.7     0.0   26.54   75.46    0.11    0.39    3.75   26.15  137.63    8.49    0.00    0.01     0.0     0.0    0.01    0.01    0.01    0.02    0.03    0.13    0.45    0.10    0.11    0.05    0.05    0.05    0.04    0.04    0.05    0.05    0.04    0.12    0.13    0.06    0.06    0.06    0.06    0.06    0.07    0.17    0.50
   15 182   106    80     2    58.3    56.6     1.8     0.0   27.13   75.76    0.11    0.39    3.76   26.74  138.34    8.49    0.00    0.03     0.0     0.0    0.01    0.02    0.02    0.02    0.03    0.12    0.40    0.12    0.12    0.06    0.05    0.05    0.05    0.05    0.05    0.05    0.05    0.15    0.15    0.07    0.07    0.07    0.06    0.07    0.08    0.17    0.45
   15 183   107   120     3    95.4    56.6    38.8     2.5   27.73   76.10    0.11    0.39    4.15   27.34  138.99    8.49    0.00    0.31     0.0     0.0    0.02    0.02    0.02    0.03    0.03    0.11    0.37   57.44    0.13    0.06    0.06    0.06    0.05    0.05    0.05    0.05    0.05   57.74    0.17    0.08    0.08    0.08    0.07    0.08    0.08    0.16    0.41
   15 184   108   120     3    96.4    64.3    32.1     0.9   28.34   84.12    0.11    0.39    4.63   27.95  139.67    8.49    0.00   12.38     0.1     0.0    0.03    0.03    0.03    0.03    0.04    0.11    0.33   46.98    0.14    0.07    0.06    0.06    0.05    0.06    0.06    0.05    0.05   59.36    0.19    0.09    0.09    0.09    0.08    0.09    0.09    0.16    0.38
   15 185   109   120     3    96.0    70.6    25.4     0.4   28.97   90.71    0.11    0.39    5.55   28.57  140.26    8.49    0.00   22.20     0.1     0.0    0.04    0.04    0.03    0.04    0.04    0.11    0.31   36.50    0.14    0.07    0.06    0.06    0.06    0.06    0.06    0.05    0.05   58.70    0.21    0.11    0.10    0.10    0.09    0.10    0.10    0.16    0.36
   15 186   110   120     3    93.6    75.6    18.0     0.2   29.60   96.01    0.11    0.39    8.13   29.21  140.81    8.49    0.00   29.97     0.1     0.1    0.05    0.05    0.04    0.05    0.05    0.11    0.29   25.01    0.14    0.07    0.07    0.07    0.06    0.06    0.06    0.06    0.05   54.98    0.24    0.12    0.11    0.12    0.10    0.11    0.11    0.17    0.34
   15 187   111   120     3    85.4    79.0     6.4     0.1   30.24   99.81    0.11    0.39   16.49   29.84  141.36    8.49    0.00   35.22     0.1     0.1    0.06    0.06    0.06    0.06    0.06    0.11    0.27    6.93    0.14    0.07    0.07    0.07    0.06    0.06    0.06    0.06    0.06   42.15    0.27    0.14    0.13    0.13    0.11    0.12    0.13    0.17    0.33
   15 188   112   120     3    85.5    80.0     5.5     0.1   30.86  101.20    0.11    0.39   16.52   30.46  141.88    8.49    0.00   36.61     0.2     0.1    0.08    0.08    0.07    0.07    0.07    0.12    0.26    5.57    0.14    0.06    0.06    0.07    0.06    0.06    0.06    0.06    0.06   42.18    0.29    0.15    0.14    0.14    0.13    0.13    0.14    0.18    0.32
   15 189   113   120     3    82.4    78.5     3.8     0.0   31.52  102.65    0.11    0.39   16.55   31.12  145.70    8.49    0.00   30.61     2.0     0.1    0.09    0.09    0.08    0.08    0.08    0.12    0.25    2.97    0.13    0.06    0.06    0.06    0.06    0.06    0.06    0.06    0.06   33.58    2.10    0.17    0.15    0.16    0.14    0.14    0.15    0.18    0.31
   15 190   114   120     3    77.0    74.1     2.9     0.0   32.16  103.53    0.11    0.39   16.58   31.77  151.70    8.49    0.00   23.38     1.9     0.1    0.11    0.11    0.10    0.10    0.10    0.13    0.26    1.39    0.14    0.06    0.06    0.06    0.06    0.06    0.06    0.06    0.06   24.77    2.08    0.18    0.17    0.17    0.15    0.16    0.16    0.20    0.32
   15 191   115   120     3    74.8    72.3     2.5     0.0   32.73  104.18    0.11    0.39   16.60   32.33  154.41    8.49    0.00   20.08     1.9     0.1    0.12    0.13    0.11    0.11    0.11    0.15    0.28    0.87    0.14    0.05    0.06    0.06    0.06    0.06    0.07    0.07    0.06   20.96    2.04    0.19    0.19    0.19    0.17    0.17    0.18    0.21    0.34
   15 192   116   120     3    75.1    72.6     2.4     0.0   33.21  104.72    0.11    0.39   16.64   32.82  154.61    8.49    0.00   20.05     1.9     0.2    0.14    0.14    0.12    0.12    0.13    0.16    0.29    0.69    0.14    0.05    0.06    0.06    0.06    0.06    0.07    0.07    0.06   20.73    2.06    0.20    0.20    0.20    0.18    0.19    0.19    0.23    0.35
   15 193   117   120     3    75.3    73.0     2.3     0.0   33.65  105.21    0.11    0.39   16.68   33.25  154.77    8.49    0.00   20.03     1.9     0.2    0.15    0.15    0.13    0.14    0.14    0.18    0.30    0.54    0.14    0.05    0.06    0.06    0.06    0.06    0.07    0.07    0.07   20.57    2.07    0.21    0.21    0.21    0.19    0.20    0.21    0.24    0.37
   15 194   118   120     3    75.5    73.3     2.2     0.0   34.03  105.65    0.11    0.39   16.71   33.63  154.89    8.49    0.00   20.07     1.9     0.2    0.16    0.16    0.14    0.15    0.15    0.19    0.31    0.42    0.13    0.05    0.06    0.06    0.05    0.06    0.06    0.07    0.07   20.49    2.07    0.22    0.22    0.22    0.20    0.21    0.22    0.25    0.38
   15 195   119   120     3    75.8    73.7     2.2     0.0   34.40  106.08    0.11    0.39   16.73   34.01  154.93    8.49    0.00   20.14     2.0     0.2    0.17    0.18    0.15    0.16    0.17    0.20    0.32    0.35    0.13    0.05    0.06    0.06    0.05    0.06    0.06    0.07    0.06   20.49    2.08    0.23    0.23    0.23    0.21    0.22    0.23    0.27    0.39
   15 196   120   120     3    76.2    74.1     2.1     0.0   34.80  106.52    0.11    0.39   16.76   34.41  154.97    8.49    0.00   20.21     2.0     0.2    0.19    0.19    0.17    0.17    0.18    0.21    0.34    0.28    0.12    0.05    0.06    0.06    0.05    0.05    0.06    0.07    0.06   20.49    2.09    0.24    0.24    0.25    0.22    0.23    0.24    0.28    0.40
   15 197   121   120     3    76.6    74.5     2.0     0.0   35.23  106.98    0.11    0.39   16.79   34.84  154.98    8.49    0.00   20.30     2.0     0.2    0.20    0.20    0.18    0.18    0.19    0.23    0.35    0.22    0.11    0.05    0.05    0.05    0.05    0.05    0.06    0.07    0.06   20.52    2.10    0.24    0.25    0.26    0.23    0.24    0.25    0.29    0.42
   15 198   122   120     3    77.0    75.0     2.0     0.0   35.66  107.44    0.11    0.39   16.81   35.27  154.98    8.49    0.00   20.37     2.0     0.2    0.21    0.22    0.19    0.20    0.21    0.24    0.37    0.17    0.11    0.04    0.05    0.05    0.05    0.05    0.05    0.07    0.06   20.55    2.10    0.25    0.27    0.27    0.24    0.25    0.26    0.31    0.43
   15 199   123   120     3    77.4    75.5     1.9     0.0   36.09  107.90    0.11    0.39   16.84   35.69  154.98    8.49    0.00   20.44     2.0     0.2    0.23    0.23    0.20    0.21    0.22    0.26    0.38    0.14    0.10    0.04    0.05    0.05    0.04    0.05    0.05    0.06    0.06   20.58    2.11    0.26    0.28    0.28    0.25    0.26    0.27    0.32    0.45
   15 200   124   120     3    77.5    75.6     1.8     0.0   36.51  108.36    0.11    0.39   16.86   36.12  155.27    8.49    0.00   20.50     2.0     0.2    0.24    0.24    0.21    0.22    0.23    0.27    0.39    0.11    0.09    0.04    0.04    0.05    0.04    0.04    0.05    0.06    0.06   20.60    2.11    0.27    0.29    0.29    0.25    0.26    0.28    0.33    0.45
   15 201   125   120     3    77.5    75.7     1.8     0.0   36.92  108.81    0.11    0.39   16.88   36.53  155.69    8.49    0.00   20.55     2.0     0.2    0.25    0.26    0.22    0.23    0.25    0.28    0.40    0.08    0.08    0.04    0.04    0.04    0.04    0.04    0.04    0.06    0.06   20.63    2.10    0.28    0.30    0.30    0.26    0.27    0.29    0.34    0.45
   15 202   126   120     3    77.4    75.8     1.7     0.0   37.33  109.25    0.11    0.39   16.90   36.94  156.08    8.49    0.00   20.59     2.0     0.2    0.27    0.27    0.23    0.24    0.26    0.29    0.40    0.06    0.07    0.04    0.04    0.04    0.03    0.04    0.04    0.05    0.05   20.65    2.10    0.29    0.31    0.31    0.27    0.28    0.30    0.34    0.45
   15 203   127   120     3    77.5    75.8     1.6     0.0   37.73  109.67    0.11    0.39   16.92   37.34  156.44    8.49    0.00   20.63     2.0     0.3    0.28    0.28    0.24    0.25    0.27    0.30    0.41    0.04    0.07    0.04    0.04    0.04    0.03    0.03    0.04    0.05    0.05   20.67    2.10    0.30    0.31    0.32    0.28    0.29    0.31    0.35    0.46
   15 204   128   120     3    77.5    75.9     1.6     0.0   38.12  110.08    0.11    0.39   16.93   37.73  156.78    8.49    0.00   20.67     2.0     0.3    0.29    0.29    0.25    0.26    0.28    0.31    0.42    0.04    0.06    0.04    0.03    0.03    0.03    0.03    0.03    0.05    0.05   20.70    2.10    0.31    0.32    0.32    0.28    0.29    0.31    0.36    0.46
   15 205   129   120     3    77.6    76.0     1.6     0.0   38.50  110.47    0.11    0.39   16.94   38.10  157.09    8.49    0.00   20.71     2.0     0.3    0.30    0.30    0.26    0.27    0.29    0.32    0.43    0.05    0.06    0.04    0.03    0.03    0.03    0.03    0.03    0.04    0.04   20.75    2.10    0.32    0.33    0.33    0.29    0.30    0.32    0.36    0.47
   15 206   130   120     3    77.6    76.1     1.5     0.0   38.86  110.85    0.11    0.39   16.95   38.47  157.39    8.49    0.00   20.74     2.0     0.3    0.31    0.31    0.27    0.28    0.30    0.33    0.43    0.05    0.05    0.04    0.03    0.03    0.03    0.03    0.03    0.04    0.04   20.79    2.09    0.32    0.34    0.34    0.30    0.31    0.33    0.37    0.48
   15 207   131   120     3    77.6    76.2     1.5     0.0   39.20  111.21    0.11    0.39   16.96   38.81  157.68    8.49    0.00   20.78     2.0     0.3    0.32    0.32    0.28    0.29    0.30    0.34    0.44    0.04    0.05    0.04    0.03    0.03    0.03    0.03    0.03    0.04    0.04   20.82    2.09    0.33    0.35    0.35    0.30    0.31    0.33    0.38    0.48
   15 208   132   120     3    77.7    76.2     1.5     0.0   39.50  111.53    0.11    0.39   16.97   39.11  157.96    8.49    0.00   20.82     2.0     0.3    0.32    0.32    0.28    0.29    0.31    0.35    0.45    0.04    0.05    0.04    0.03    0.03    0.03    0.03    0.03    0.03    0.03   20.85    2.09    0.34    0.35    0.35    0.31    0.32    0.34    0.38    0.49
   15 209   133   120     3    77.4    75.9     1.4     0.0   39.80  111.82    0.11    0.39   16.98   39.40  158.54    8.49    0.00   20.38     2.0     0.3    0.33    0.33    0.29    0.30    0.32    0.36    0.46    0.06    0.05    0.04    0.03    0.03    0.02    0.02    0.03    0.03    0.03   20.44    2.08    0.35    0.36    0.36    0.31    0.32    0.34    0.39    0.49
   15 210   134   120     3    77.3    75.9     1.4     0.0   40.08  112.10    0.11    0.39   16.99   39.68  158.88    8.49    0.00   20.31     2.0     0.3    0.34    0.34    0.30    0.31    0.32    0.36    0.47    0.07    0.05    0.04    0.03    0.03    0.02    0.02    0.02    0.03    0.03   20.37    2.08    0.35    0.37    0.37    0.32    0.33    0.35    0.39    0.50
   15 211   135   120     3    77.2    75.8     1.4     0.0   40.33  112.35    0.11    0.39   17.00   39.93  159.23    8.49    0.00   20.22     2.0     0.3    0.34    0.34    0.30    0.31    0.33    0.37    0.47    0.07    0.05    0.04    0.03    0.03    0.02    0.02    0.02    0.03    0.03   20.29    2.07    0.36    0.37    0.37    0.32    0.33    0.35    0.39    0.50
   15 212   136   120     3    77.2    75.8     1.4     0.0   40.56  112.59    0.11    0.39   17.01   40.17  159.49    8.49    0.00   20.26     2.0     0.3    0.35    0.35    0.30    0.31    0.33    0.37    0.48    0.08    0.05    0.04    0.03    0.03    0.02    0.02    0.02    0.02    0.03   20.34    2.06    0.37    0.38    0.38    0.33    0.34    0.35    0.40    0.50
   15 213   137   120     3    77.1    75.8     1.4     0.0   40.80  112.83    0.11    0.39   17.01   40.40  159.74    8.49    0.00   20.30     2.0     0.3    0.35    0.35    0.31    0.32    0.34    0.38    0.48    0.09    0.05    0.04    0.03    0.03    0.02    0.02    0.02    0.02    0.03   20.38    2.06    0.37    0.38    0.38    0.33    0.34    0.36    0.40    0.51
   15 214   138   120     3    77.1    75.7     1.4     0.0   41.02  113.06    0.11    0.39   17.01   40.63  159.99    8.49    0.00   20.33     2.0     0.3    0.36    0.36    0.31    0.32    0.34    0.38    0.48    0.09    0.05    0.04    0.03    0.03    0.02    0.02    0.02    0.02    0.03   20.42    2.05    0.38    0.38    0.39    0.34    0.35    0.36    0.40    0.51
   15 215   139   120     3    77.1    75.7     1.3     0.0   41.26  113.30    0.11    0.39   17.01   40.86  160.24    8.49    0.00   20.37     2.0     0.3    0.36    0.36    0.32    0.33    0.34    0.39    0.49    0.09    0.05    0.04    0.03    0.03    0.02    0.02    0.02    0.02    0.03   20.47    2.04    0.38    0.39    0.39    0.34    0.35    0.37    0.41    0.52
   15 216   140   120     3    77.1    75.7     1.3     0.0   41.50  113.54    0.11    0.39   17.01   41.11  160.48    8.49    0.00   20.41     2.0     0.4    0.37    0.37    0.32    0.33    0.35    0.39    0.49    0.09    0.05    0.04    0.03    0.03    0.02    0.02    0.02    0.02    0.03   20.50    2.04    0.39    0.39    0.40    0.34    0.35    0.37    0.41    0.52
   15 217   141   120     3    77.1    75.8     1.3     0.0   41.77  113.80    0.11    0.39   17.01   41.38  160.72    8.49    0.00   20.45     2.0     0.4    0.37    0.37    0.33    0.34    0.35    0.39    0.50    0.09    0.05    0.04    0.03    0.03    0.02    0.02    0.02    0.02    0.02   20.54    2.03    0.39    0.40    0.40    0.35    0.36    0.38    0.41    0.52
   15 218   142   120     3    77.2    75.8     1.4     0.0   42.06  114.07    0.11    0.39   17.02   41.67  160.96    8.49    0.00   20.49     2.0     0.4    0.38    0.38    0.33    0.34    0.36    0.40    0.50    0.09    0.05    0.04    0.03    0.03    0.02    0.02    0.02    0.02    0.02   20.58    2.03    0.40    0.41    0.41    0.35    0.36    0.38    0.42    0.53
   15 219   143   120     3    77.2    75.9     1.3     0.0   42.37  114.36    0.11    0.39   17.03   41.97  161.19    8.49    0.00   20.53     2.0     0.4    0.39    0.39    0.34    0.35    0.36    0.40    0.51    0.07    0.05    0.04    0.03    0.03    0.02    0.02    0.02    0.02    0.02   20.60    2.02    0.41    0.41    0.41    0.36    0.37    0.39    0.42    0.53
   15 220   144   120     3    77.3    76.0     1.3     0.0   42.69  114.67    0.11    0.39   17.05   42.30  161.42    8.49    0.00   20.57     2.0     0.4    0.39    0.39    0.34    0.35    0.37    0.41    0.52    0.05    0.05    0.04    0.03    0.03    0.02    0.02    0.02    0.02    0.02   20.62    2.02    0.42    0.42    0.42    0.37    0.38    0.39    0.43    0.54
   15 221   145   120     3    77.4    76.1     1.3     0.0   43.04  115.00    0.11    0.39   17.06   42.65  161.65    8.49    0.00   20.60     2.0     0.4    0.40    0.40    0.35    0.36    0.38    0.41    0.52    0.05    0.05    0.04    0.03    0.03    0.02    0.02    0.02    0.02    0.02   20.65    2.02    0.43    0.43    0.43    0.37    0.38    0.40    0.43    0.55
   15 222   146   120     3    77.5    76.2     1.3     0.0   43.40  115.33    0.11    0.39   17.07   43.00  161.87    8.49    0.00   20.64     2.0     0.4    0.41    0.41    0.36    0.37    0.38    0.42    0.53    0.04    0.05    0.04    0.03    0.03    0.02    0.02    0.02    0.02    0.02   20.68    2.02    0.44    0.44    0.44    0.38    0.39    0.40    0.44    0.55
   15 223   147   120     3    77.7    76.3     1.3     0.0   43.76  115.68    0.11    0.39   17.08   43.36  162.08    8.49    0.00   20.67     2.0     0.4    0.42    0.42    0.36    0.37    0.39    0.42    0.53    0.04    0.04    0.04    0.03    0.03    0.02    0.02    0.02    0.02    0.02   20.71    2.02    0.45    0.45    0.44    0.39    0.40    0.41    0.44    0.56
   15 224   148   120     3    77.8    76.5     1.4     0.0   44.12  116.02    0.11    0.39   17.09   43.72  162.30    8.49    0.00   20.71     2.0     0.4    0.43    0.43    0.37    0.38    0.40    0.43    0.54    0.03    0.04    0.04    0.03    0.03    0.02    0.02    0.02    0.02    0.02   20.74    2.01    0.45    0.45    0.45    0.39    0.40    0.42    0.45    0.56
   15 225   149   120     3    78.2    76.8     1.4     0.0   44.48  116.37    0.11    0.39   17.09   44.08  162.30    8.49    0.00   20.74     2.0     0.4    0.43    0.43    0.38    0.39    0.40    0.43    0.55    0.03    0.04    0.04    0.03    0.03    0.02    0.02    0.02    0.02    0.02   20.77    2.01    0.46    0.46    0.46    0.40    0.41    0.42    0.45    0.57
   15 226   150   120     3    78.5    77.1     1.4     0.0   44.83  116.71    0.11    0.39   17.10   44.44  162.30    8.49    0.00   20.77     2.0     0.4    0.44    0.44    0.39    0.39    0.41    0.44    0.55    0.03    0.04    0.04    0.03    0.03    0.02    0.02    0.02    0.02    0.02   20.81    2.01    0.47    0.47    0.47    0.41    0.42    0.43    0.46    0.58
   15 227   151   120     3    78.9    77.5     1.4     0.0   45.22  117.06    0.11    0.39   17.11   44.83  162.30    8.49    0.00   20.81     2.0     0.4    0.45    0.45    0.39    0.40    0.41    0.45    0.56    0.08    0.04    0.04    0.03    0.03    0.02    0.02    0.02    0.02    0.02   20.89    2.01    0.48    0.48    0.48    0.41    0.42    0.44    0.46    0.59
   15 228   152   120     3    79.2    77.8     1.4     0.0   45.60  117.41    0.11    0.39   17.13   45.21  162.30    8.49    0.00   20.09     2.3     0.5    0.46    0.46    0.40    0.41    0.42    0.45    0.57    0.09    0.05    0.04    0.03    0.03    0.02    0.02    0.02    0.02    0.02   20.17    2.39    0.49    0.49    0.48    0.42    0.43    0.44    0.47    0.59
   15 229   153   120     3    79.6    78.2     1.4     0.0   45.99  117.74    0.11    0.39   17.14   45.60  162.30    8.49    0.00   17.64     3.6     0.5    0.47    0.46    0.40    0.41    0.43    0.45    0.57    0.15    0.05    0.04    0.03    0.03    0.02    0.02    0.02    0.02    0.02   17.78    3.62    0.50    0.49    0.49    0.43    0.43    0.45    0.47    0.60
   15 230   154   120     3    79.9    78.5     1.5     0.0   46.35  118.05    0.11    0.39   17.17   45.95  162.30    8.49    0.00   17.17     3.9     0.5    0.47    0.47    0.41    0.42    0.43    0.46    0.59    0.17    0.05    0.04    0.03    0.03    0.02    0.02    0.02    0.02    0.02   17.33    3.91    0.50    0.50    0.49    0.43    0.44    0.45    0.48    0.61
   15 231   155   120     3    80.2    78.8     1.5     0.0   46.68  118.35    0.11    0.39   17.21   46.28  162.30    8.49    0.00   18.62     3.2     0.5    0.47    0.46    0.41    0.42    0.44    0.46    0.61    0.16    0.05    0.04    0.03    0.03    0.02    0.02    0.02    0.02    0.02   18.78    3.30    0.52    0.50    0.49    0.43    0.44    0.46    0.48    0.63
   15 232   156   120     3    80.5    79.0     1.5     0.0   46.97  118.62    0.11    0.39   17.24   46.58  162.30    8.49    0.00   18.69     3.2     0.5    0.47    0.46    0.41    0.42    0.45    0.47    0.61    0.15    0.06    0.04    0.03    0.03    0.02    0.02    0.02    0.02    0.02   18.84    3.29    0.52    0.50    0.49    0.44    0.45    0.47    0.49    0.64
   15 233   157   120     3    80.8    79.3     1.5     0.0   47.25  118.88    0.11    0.39   17.25   46.85  162.30    8.49    0.00   18.76     3.2     0.5    0.48    0.47    0.42    0.43    0.45    0.47    0.62    0.19    0.06    0.04    0.03    0.03    0.02    0.02    0.02    0.02    0.02   18.95    3.28    0.53    0.51    0.50    0.44    0.45    0.47    0.49    0.64
   15 234   158   120     3    81.0    79.6     1.5     0.0   47.52  119.14    0.11    0.39   17.25   47.12  162.30    8.49    0.00   18.84     3.2     0.5    0.48    0.47    0.42    0.43    0.45    0.47    0.62    0.20    0.06    0.04    0.03    0.03    0.02    0.02    0.02    0.02    0.02   19.04    3.27    0.53    0.51    0.50    0.44    0.46    0.48    0.49    0.65
   15 235   159   120     3    81.3    79.8     1.5     0.0   47.79  119.41    0.11    0.39   17.25   47.40  162.30    8.49    0.00   18.92     3.2     0.5    0.49    0.48    0.43    0.44    0.46    0.48    0.63    0.21    0.06    0.04    0.03    0.03    0.02    0.02    0.02    0.02    0.02   19.13    3.26    0.54    0.51    0.51    0.45    0.46    0.48    0.50    0.65
   15 236   160   120     3    81.6    80.1     1.5     0.0   48.08  119.68    0.11    0.39   17.26   47.69  162.30    8.49    0.00    7.66     8.0     2.1    0.49    0.48    0.43    0.44    0.46    0.48    0.63    0.23    0.06    0.04    0.03    0.03    0.02    0.02    0.02    0.02    0.02    7.90    8.03    2.14    0.52    0.51    0.45    0.46    0.48    0.50    0.65
   15 237   161   120     3    82.0    80.4     1.6     0.0   48.48  119.97    0.11    0.39   17.26   48.08  162.30    8.49    0.00    8.39     7.4     2.7    0.49    0.48    0.43    0.45    0.47    0.49    0.65    0.27    0.12    0.04    0.03    0.03    0.02    0.02    0.02    0.02    0.02    8.66    7.56    2.69    0.52    0.50    0.46    0.47    0.49    0.51    0.68

*DSSAT Cropping System Model Ver. 4.8.5.000 -release  NOV 27, 2025 15:48:13

*RUN   2        : 2                         WHAPS048 TUDU1501    2
 MODEL          : WHAPS048 - Wheat
 EXPERIMENT     : TUDU1501 WH
 DATA PATH      :
 TREATMENT  2   : 2                         WHAPS048
  
!                                                                                                                                      NO3 (ppm) at soil dep. (cm):                                                    NH4 (ppm) at soil dep. (cm):                                                    Total Inorganic N @dep(ppm):
!                                                                                                                                       0-5    5-15   15-20   20-30   30-40   40-50   50-60   60-70   70-90  90-210     0-5    5-15   15-20   20-30   30-40   40-50   50-60   60-70   70-90  90-210     0-5    5-15   15-20   20-30   30-40   40-50   50-60   60-70   70-90  90-210
@YEAR DOY   DAS  NAPC  NI#M    NIAD    NITD    NHTD   NURTD    NMNC    NITC    NDNC    NIMC    AMLC   NNMNC    NUCM    NLCC    TDNC    NI1D    NI2D    NI3D    NI4D    NI5D    NI6D    NI7D    NI8D    NI9D    NI10    NH1D    NH2D    NH3D    NH4D    NH5D    NH6D    NH7D    NH8D    NH9D    NH10    NT1D    NT2D    NT3D    NT4D    NT5D    NT6D    NT7D    NT8D    NT9D    NT10    
   15 076     0     0     0   102.6    93.5     9.1     0.0    0.00    0.00    0.00    0.00    0.00    0.00    0.00    0.00    0.00    3.10     3.1     3.1    3.10    3.10    3.10    3.10    3.10    3.10    3.10    0.30    0.30    0.30    0.30    0.30    0.30    0.30    0.30    0.30    0.30    3.40    3.40    3.40    3.40    3.40    3.40    3.40    3.40    3.40    3.40
   15 077     1     0     0   102.6    94.7     7.9     0.0    0.07    1.12    0.00    0.06    0.00    0.01    0.00    0.00    0.00    3.13     3.1     3.1    3.14    3.13    3.14    3.14    3.14    3.14    3.14    0.24    0.24    0.26    0.26    0.27    0.26    0.26    0.26    0.26    0.26    3.37    3.37    3.40    3.40    3.40    3.40    3.40    3.40    3.40    3.40
   15 078     2     0     0   102.6    95.6     7.0     0.0    0.13    2.06    0.00    0.10    0.00    0.03    0.00    0.00    0.00    3.79     3.1     3.2    3.13    3.14    3.15    3.15    3.16    3.16    3.16    0.20    0.19    0.23    0.23    0.24    0.23    0.23    0.24    0.23    0.24    3.98    3.27    3.40    3.36    3.38    3.38    3.39    3.39    3.39    3.39
   15 079     3     0     0   102.6    96.4     6.3     0.0    0.19    2.86    0.00    0.13    0.00    0.06    0.00    0.00    0.00    4.45     3.0     3.2    3.11    3.14    3.16    3.16    3.18    3.17    3.18    0.16    0.16    0.21    0.21    0.21    0.21    0.21    0.21    0.21    0.21    4.62    3.18    3.41    3.32    3.36    3.37    3.37    3.39    3.38    3.39
   15 080     4     0     0   102.7    97.1     5.6     0.0    0.23    3.52    0.00    0.15    0.00    0.08    0.00    0.00    0.00    4.52     3.0     3.2    3.13    3.16    3.18    3.18    3.20    3.19    3.20    0.14    0.13    0.19    0.19    0.19    0.19    0.19    0.19    0.19    0.19    4.66    3.16    3.40    3.32    3.36    3.37    3.37    3.39    3.38    3.39
   15 081     5     0     0   102.7    97.6     5.1     0.0    0.26    4.08    0.00    0.16    0.00    0.11    0.00    0.00    0.00    4.58     3.0     3.2    3.14    3.18    3.19    3.20    3.22    3.21    3.22    0.12    0.12    0.17    0.17    0.18    0.17    0.17    0.17    0.17    0.17    4.71    3.14    3.39    3.32    3.36    3.36    3.37    3.39    3.38    3.39
   15 082     6     0     0   102.7    98.1     4.6     0.0    0.28    4.55    0.00    0.16    0.00    0.12    0.00    0.00    0.00    4.63     3.0     3.2    3.16    3.19    3.21    3.21    3.23    3.23    3.23    0.11    0.11    0.16    0.16    0.16    0.16    0.16    0.16    0.16    0.16    4.75    3.12    3.39    3.31    3.35    3.36    3.37    3.39    3.38    3.39
   15 083     7     0     0   102.7    98.5     4.2     0.0    0.29    4.96    0.00    0.16    0.00    0.13    0.00    0.00    0.00    4.69     3.0     3.2    3.16    3.20    3.22    3.23    3.24    3.24    3.25    0.10    0.10    0.15    0.15    0.15    0.14    0.15    0.15    0.14    0.14    4.80    3.11    3.38    3.31    3.35    3.36    3.37    3.39    3.38    3.39
   15 084     8     0     0   102.7    98.9     3.9     0.0    0.29    5.33    0.00    0.16    0.00    0.13    0.00    0.00    0.00    4.75     3.0     3.2    3.17    3.21    3.23    3.24    3.25    3.25    3.26    0.10    0.09    0.14    0.13    0.14    0.13    0.13    0.13    0.13    0.13    4.85    3.09    3.38    3.31    3.35    3.36    3.37    3.39    3.38    3.39
   15 085     9     0     0   102.7    99.2     3.5     0.0    0.31    5.69    0.00    0.16    0.00    0.15    0.00    0.00    0.00    4.81     3.0     3.2    3.18    3.22    3.24    3.25    3.27    3.26    3.27    0.09    0.09    0.13    0.12    0.13    0.12    0.12    0.12    0.12    0.12    4.90    3.08    3.37    3.30    3.35    3.36    3.37    3.39    3.38    3.39
   15 086    10     0     0   102.7    99.5     3.2     0.0    0.32    6.01    0.00    0.16    0.00    0.16    0.00    0.00    0.00    4.85     3.0     3.3    3.19    3.23    3.25    3.26    3.28    3.27    3.28    0.08    0.08    0.12    0.11    0.12    0.11    0.11    0.11    0.11    0.11    4.94    3.07    3.37    3.30    3.35    3.36    3.37    3.39    3.38    3.39
   15 087    11     0     0   102.8    99.8     2.9     0.0    0.34    6.31    0.00    0.17    0.00    0.18    0.00    0.00    0.00    4.91     3.0     3.3    3.20    3.24    3.26    3.27    3.29    3.28    3.29    0.07    0.07    0.11    0.10    0.11    0.10    0.10    0.10    0.10    0.10    4.99    3.05    3.36    3.30    3.35    3.36    3.37    3.39    3.38    3.39
   15 088    12     0     0   102.8   100.1     2.7     0.0    0.37    6.60    0.00    0.17    0.00    0.20    0.00    0.00    0.00    4.97     3.0     3.3    3.20    3.25    3.27    3.28    3.29    3.29    3.30    0.07    0.06    0.10    0.10    0.10    0.09    0.09    0.09    0.09    0.09    5.03    3.03    3.36    3.30    3.35    3.36    3.37    3.39    3.38    3.39
   15 089    13     0     0   102.8   100.4     2.4     0.0    0.40    6.86    0.00    0.18    0.00    0.23    0.00    0.00    0.00    4.38     3.3     3.3    3.21    3.26    3.27    3.29    3.30    3.30    3.31    0.06    0.05    0.09    0.09    0.09    0.08    0.09    0.09    0.08    0.08    4.44    3.33    3.35    3.29    3.35    3.36    3.37    3.39    3.38    3.39
   15 090    14     0     0   102.6   100.4     2.2     0.0    0.43    7.10    0.00    0.19    0.00    0.24    0.18    0.00    0.00    3.73     3.5     3.3    3.21    3.26    3.28    3.29    3.31    3.31    3.32    0.04    0.04    0.08    0.08    0.08    0.08    0.08    0.08    0.07    0.07    3.77    3.53    3.35    3.29    3.34    3.36    3.37    3.39    3.38    3.39
   15 091    15     0     0   102.6   100.6     2.0     0.0    0.47    7.32    0.00    0.20    0.00    0.27    0.24    0.00    0.00    3.50     3.6     3.4    3.20    3.26    3.28    3.29    3.31    3.31    3.32    0.03    0.03    0.07    0.07    0.07    0.07    0.07    0.07    0.07    0.07    3.53    3.63    3.50    3.27    3.33    3.35    3.36    3.38    3.38    3.39
   15 092    16     0     0   102.5   100.7     1.8     0.0    0.49    7.51    0.00    0.21    0.00    0.28    0.38    0.00    0.00    3.25     3.6     3.7    3.27    3.25    3.28    3.29    3.31    3.31    3.32    0.03    0.02    0.07    0.07    0.07    0.06    0.07    0.07    0.06    0.06    3.28    3.60    3.73    3.33    3.32    3.34    3.35    3.38    3.37    3.38
   15 093    17     0     0   102.5   100.8     1.7     0.0    0.51    7.68    0.00    0.21    0.00    0.30    0.41    0.00    0.00    3.16     3.4     3.6    3.49    3.34    3.28    3.29    3.31    3.31    3.32    0.03    0.02    0.06    0.06    0.06    0.06    0.06    0.06    0.06    0.06    3.19    3.43    3.63    3.55    3.40    3.34    3.35    3.37    3.37    3.38
   15 094    18     0     0   102.4   100.9     1.5     0.0    0.51    7.82    0.00    0.21    0.00    0.30    0.45    0.00    0.00    3.35     3.4     3.7    3.51    3.35    3.27    3.28    3.31    3.30    3.31    0.02    0.02    0.06    0.06    0.06    0.05    0.05    0.06    0.05    0.05    3.37    3.43    3.76    3.57    3.40    3.32    3.33    3.37    3.35    3.37
   15 095    19     0     0   102.3   100.9     1.4     0.0    0.51    7.95    0.00    0.21    0.00    0.30    0.54    0.00    0.00    3.23     3.3     3.6    3.50    3.36    3.39    3.39    3.31    3.30    3.32    0.02    0.02    0.06    0.05    0.05    0.05    0.05    0.05    0.05    0.05    3.25    3.30    3.63    3.56    3.42    3.44    3.44    3.36    3.35    3.36
   15 096    20     0     0   102.3   101.0     1.3     0.0    0.51    8.06    0.00    0.21    0.00    0.30    0.58    0.00    0.00    3.50     3.2     3.5    3.49    3.37    3.40    3.40    3.31    3.30    3.31    0.02    0.02    0.05    0.05    0.05    0.05    0.05    0.05    0.04    0.04    3.52    3.26    3.59    3.54    3.42    3.45    3.45    3.35    3.34    3.36
   15 097    21     0     0   102.3   101.1     1.2     0.0    0.51    8.16    0.00    0.21    0.00    0.30    0.62    0.00    0.00    3.79     3.2     3.5    3.48    3.36    3.39    3.40    3.31    3.29    3.31    0.02    0.01    0.05    0.05    0.05    0.04    0.04    0.04    0.04    0.04    3.81    3.23    3.57    3.52    3.41    3.44    3.44    3.35    3.34    3.35
   15 098    22    40     1   142.2   111.1    31.1     0.0    0.51    8.25    0.00    0.21    0.00    0.30    0.65    0.00    0.00   19.91     3.2     3.5    3.44    3.34    3.38    3.38    3.30    3.29    3.30   46.53    0.01    0.05    0.04    0.04    0.04    0.04    0.04    0.04    0.04   66.44    3.17    3.56    3.48    3.38    3.42    3.42    3.34    3.32    3.34
   15 099    23    40     1   142.1   113.1    29.1     0.0    0.51   10.22    0.00    0.21    0.00    0.30    0.72    0.00    0.00   22.82     3.1     3.5    3.44    3.34    3.38    3.39    3.30    3.29    3.31   43.55    0.01    0.04    0.04    0.04    0.04    0.04    0.04    0.03    0.03   66.37    3.15    3.55    3.48    3.38    3.42    3.42    3.34    3.32    3.34
   15 100    24    40     1   141.8   115.0    26.9     0.0    0.52   12.29    0.00    0.21    0.00    0.30    1.03    0.00    0.00   25.72     3.1     3.5    3.44    3.35    3.38    3.39    3.30    3.29    3.31   40.24    0.01    0.04    0.04    0.04    0.03    0.03    0.03    0.03    0.03   65.96    3.12    3.54    3.48    3.38    3.42    3.42    3.34    3.32    3.34
   15 101    25    40     1   141.1   116.8    24.3     0.0    0.55   14.48    0.00    0.22    0.00    0.32    1.78    0.00    0.00   28.51     3.1     3.5    3.44    3.35    3.39    3.39    3.31    3.29    3.31   36.42    0.01    0.04    0.03    0.03    0.03    0.03    0.03    0.03    0.03   64.93    3.06    3.54    3.47    3.38    3.42    3.42    3.34    3.32    3.34
   15 102    26    40     1   140.6   118.8    21.8     0.0    0.60   16.81    0.00    0.24    0.00    0.36    2.31    0.00    0.00   31.67     3.0     3.5    3.44    3.35    3.39    3.39    3.31    3.30    3.31   32.57    0.00    0.03    0.03    0.03    0.03    0.03    0.03    0.03    0.03   64.25    2.98    3.53    3.47    3.38    3.42    3.42    3.34    3.32    3.34
   15 103    27    40     1   139.9   120.7    19.2     0.0    0.68   19.20    0.00    0.26    0.00    0.42    3.06    0.00    0.00   34.79     2.8     3.5    3.44    3.35    3.39    3.40    3.31    3.30    3.32   28.55    0.00    0.03    0.03    0.03    0.03    0.03    0.03    0.03    0.03   63.34    2.84    3.52    3.47    3.38    3.42    3.43    3.34    3.33    3.34
   15 104    28    40     1   139.1   122.3    16.8     0.0    0.78   21.43    0.00    0.29    0.00    0.49    3.86    0.00    0.00   37.70     2.6     3.5    3.44    3.35    3.39    3.40    3.32    3.30    3.32   24.85    0.00    0.03    0.02    0.03    0.02    0.03    0.03    0.03    0.03   62.54    2.61    3.50    3.46    3.38    3.42    3.43    3.35    3.33    3.35
   15 105    29    40     1   138.7   123.7    15.0     0.0    0.89   23.28    0.00    0.30    0.00    0.58    4.37    0.00    0.00   40.27     2.4     3.4    3.43    3.36    3.40    3.40    3.32    3.31    3.32   21.98    0.00    0.03    0.02    0.03    0.02    0.03    0.03    0.03    0.03   62.25    2.38    3.46    3.45    3.38    3.42    3.43    3.35    3.33    3.35
   15 106    30    40     1   138.5   125.0    13.5     0.0    1.01   24.88    0.00    0.32    0.00    0.69    4.69    0.00    0.00   42.59     2.2     3.4    3.42    3.36    3.40    3.41    3.32    3.31    3.33   19.64    0.00    0.03    0.02    0.03    0.02    0.03    0.03    0.03    0.03   62.23    2.18    3.42    3.44    3.39    3.42    3.43    3.35    3.34    3.36
   15 107    31    40     1   138.3   126.1    12.2     0.0    1.15   26.29    0.00    0.33    0.00    0.82    5.00    0.00    0.00   13.82    15.2     5.6    4.08    3.48    3.44    3.41    3.33    3.31    3.33   17.63    0.00    0.03    0.02    0.03    0.02    0.03    0.03    0.03    0.03   31.45   15.17    5.58    4.10    3.50    3.46    3.44    3.36    3.34    3.36
   15 108    32    40     1   134.9   124.9    10.0     0.0    1.30   27.14    0.00    0.35    0.00    0.94    8.54    0.00    0.00   12.81    12.9     6.8    4.30    3.61    3.48    3.50    3.54    3.52    3.34   14.21    0.00    0.03    0.02    0.03    0.02    0.03    0.03    0.03    0.03   27.02   12.90    6.82    4.32    3.64    3.50    3.53    3.57    3.55    3.37
   15 109    33    40     1   134.2   125.4     8.7     0.0    1.42   28.20    0.00    0.37    0.00    1.05    9.34    0.00    0.00   15.25    11.7     6.9    4.42    3.65    3.49    3.51    3.55    3.52    3.43   12.19    0.00    0.03    0.02    0.03    0.02    0.03    0.03    0.03    0.03   27.43   11.72    6.90    4.44    3.68    3.52    3.54    3.58    3.55    3.47
   15 110    34    40     1   133.2   125.7     7.5     0.0    1.52   29.13    0.00    0.39    0.00    1.14   10.40    0.00    0.00   18.41    10.8     6.5    4.37    3.65    3.48    3.49    3.54    3.51    3.43   10.25    0.00    0.03    0.02    0.03    0.03    0.03    0.03    0.03    0.03   28.66   10.79    6.49    4.39    3.68    3.51    3.52    3.57    3.54    3.46
   15 111    35    40     1   131.8   125.4     6.3     0.0    1.61   29.85    0.00    0.39    0.00    1.21   11.91    0.00    0.00   20.85     9.9     6.1    4.25    3.61    3.46    3.48    3.53    3.50    3.42    8.51    0.00    0.03    0.02    0.03    0.03    0.03    0.03    0.03    0.03   29.36    9.90    6.10    4.28    3.64    3.49    3.51    3.56    3.52    3.45
   15 112    36    40     1   129.7   124.4     5.3     0.0    1.67   30.40    0.00    0.39    0.00    1.28   14.00    0.00    0.00   20.21     9.5     6.0    4.21    3.61    3.46    3.48    3.53    3.50    3.42    6.95    0.00    0.03    0.02    0.03    0.02    0.03    0.03    0.03    0.03   27.16    9.49    5.99    4.24    3.64    3.49    3.51    3.56    3.53    3.45
   15 113    37    40     1   127.3   122.9     4.4     0.0    1.74   30.86    0.00    0.40    0.00    1.34   16.50    0.00    0.00   19.42     8.8     5.8    4.14    3.59    3.46    3.48    3.54    3.50    3.42    5.63    0.00    0.03    0.02    0.03    0.02    0.03    0.03    0.02    0.03   25.04    8.81    5.80    4.16    3.62    3.49    3.51    3.57    3.53    3.45
   15 114    38    40     1   126.0   122.1     3.9     0.0    1.81   31.28    0.00    0.40    0.00    1.41   17.85    0.00    0.00   19.49     8.3     5.6    4.07    3.58    3.47    3.48    3.54    3.50    3.42    4.87    0.00    0.03    0.02    0.03    0.02    0.03    0.03    0.02    0.03   24.36    8.30    5.64    4.09    3.61    3.49    3.51    3.57    3.53    3.45
   15 115    39    40     1   123.9   120.4     3.5     0.0    1.90   31.67    0.00    0.40    0.00    1.50   20.08    0.00    0.00   19.47     7.3     5.3    3.91    3.54    3.47    3.49    3.54    3.51    3.43    4.19    0.00    0.03    0.02    0.03    0.02    0.03    0.03    0.02    0.03   23.66    7.34    5.28    3.94    3.57    3.49    3.51    3.57    3.53    3.45
   15 116    40    40     1   121.9   118.8     3.1     0.0    2.00   32.03    0.00    0.40    0.00    1.61   22.21    0.00    0.00   19.24     6.6     4.9    3.75    3.47    3.47    3.49    3.54    3.51    3.43    3.53    0.00    0.03    0.02    0.03    0.03    0.03    0.03    0.02    0.03   22.77    6.57    4.94    3.78    3.51    3.49    3.52    3.57    3.53    3.46
   15 117    41    40     1   119.4   116.8     2.6     0.0    2.13   32.36    0.00    0.40    0.00    1.74   24.77    0.00    0.00   17.69     6.2     4.5    3.57    3.39    3.47    3.49    3.55    3.51    3.43    2.83    0.01    0.03    0.03    0.03    0.03    0.03    0.03    0.03    0.03   20.53    6.22    4.56    3.59    3.42    3.50    3.52    3.58    3.54    3.46
   15 118    42    40     1   115.1   113.2     1.8     0.0    2.28   32.60    0.00    0.40    0.00    1.89   29.26    0.00    0.00   11.04     7.0     4.3    3.46    3.34    3.47    3.49    3.55    3.52    3.44    1.52    0.01    0.03    0.03    0.03    0.03    0.03    0.03    0.03    0.03   12.56    6.99    4.36    3.49    3.38    3.49    3.53    3.58    3.54    3.47
   15 119    43    40     1   113.0   111.4     1.6     0.0    2.45   32.79    0.00    0.40    0.00    2.05   31.48    0.00    0.00    9.20     6.7     4.1    3.37    3.30    3.46    3.49    3.55    3.51    3.44    1.10    0.02    0.04    0.03    0.04    0.03    0.03    0.03    0.03    0.03   10.30    6.75    4.16    3.40    3.33    3.49    3.53    3.59    3.54    3.47
   15 120    44    40     1   111.8   110.3     1.5     0.0    2.60   32.97    0.00    0.40    0.00    2.21   32.86    0.00    0.00    8.69     6.4     4.0    3.31    3.26    3.44    3.49    3.55    3.51    3.43    0.82    0.03    0.04    0.03    0.04    0.03    0.03    0.04    0.03    0.03    9.51    6.46    4.00    3.34    3.30    3.47    3.52    3.58    3.54    3.46
[...]
   15 185   109     0     0    60.4    58.2     2.2     0.0   28.93   27.67    0.07    0.34    0.00   28.59   56.54   14.06    0.00    0.20     0.1     0.1    0.06    0.07    0.07    0.09    0.13    0.32    0.82    0.18    0.19    0.09    0.08    0.08    0.07    0.07    0.07    0.06    0.06    0.37    0.34    0.16    0.14    0.15    0.14    0.16    0.20    0.38    0.88
   15 186   110     0     0    60.5    58.2     2.2     0.0   29.62   28.20    0.07    0.34    0.00   29.28   57.22   14.06    0.00    0.23     0.2     0.1    0.08    0.08    0.08    0.10    0.13    0.32    0.78    0.18    0.19    0.09    0.08    0.08    0.07    0.07    0.07    0.06    0.06    0.41    0.37    0.17    0.16    0.16    0.15    0.17    0.20    0.38    0.84
   15 187   111     0     0    60.5    58.2     2.3     0.0   30.33   28.77    0.07    0.34    0.00   29.99   57.88   14.06    0.00    0.27     0.2     0.1    0.09    0.09    0.09    0.11    0.14    0.31    0.75    0.17    0.19    0.09    0.08    0.08    0.07    0.07    0.07    0.06    0.06    0.44    0.41    0.19    0.17    0.18    0.17    0.18    0.21    0.37    0.81
   15 188   112     0     0    60.6    58.3     2.3     0.0   31.04   29.37    0.07    0.34    0.00   30.70   58.53   14.06    0.00    0.31     0.3     0.1    0.10    0.11    0.10    0.12    0.15    0.30    0.72    0.17    0.18    0.09    0.08    0.09    0.08    0.08    0.08    0.06    0.06    0.47    0.44    0.21    0.19    0.19    0.18    0.20    0.22    0.37    0.78
   15 189   113     0     0    60.6    58.3     2.3     0.0   31.79   30.00    0.07    0.34    0.00   31.45   59.21   14.06    0.00    0.30     0.3     0.1    0.12    0.12    0.12    0.13    0.15    0.30    0.69    0.19    0.17    0.09    0.08    0.09    0.08    0.08    0.08    0.06    0.06    0.49    0.49    0.23    0.20    0.21    0.19    0.21    0.23    0.37    0.75
   15 190   114     0     0    60.5    58.2     2.3     0.0   32.54   30.57    0.07    0.34    0.00   32.19   60.07   14.06    0.00    0.12     0.3     0.2    0.13    0.14    0.13    0.14    0.16    0.30    0.67    0.18    0.17    0.09    0.08    0.08    0.08    0.08    0.08    0.07    0.06    0.30    0.51    0.24    0.22    0.22    0.20    0.22    0.24    0.36    0.73
   15 191   115     0     0    60.4    58.2     2.3     0.0   33.19   31.09    0.07    0.34    0.00   32.84   60.80   14.06    0.00    0.09     0.4     0.2    0.14    0.15    0.13    0.15    0.17    0.29    0.64    0.18    0.17    0.09    0.08    0.08    0.08    0.08    0.08    0.07    0.06    0.27    0.53    0.25    0.23    0.23    0.21    0.23    0.25    0.36    0.70
   15 192   116     0     0    60.3    58.0     2.3     0.0   33.75   31.55    0.07    0.34    0.00   33.40   61.50   14.06    0.00    0.10     0.4     0.2    0.15    0.15    0.14    0.15    0.17    0.29    0.62    0.18    0.16    0.09    0.08    0.08    0.07    0.08    0.08    0.06    0.06    0.28    0.54    0.26    0.23    0.23    0.21    0.23    0.25    0.35    0.68
   15 193   117     0     0    60.1    57.9     2.2     0.0   34.26   31.99    0.07    0.34    0.00   33.92   62.16   14.06    0.00    0.12     0.4     0.2    0.15    0.16    0.14    0.16    0.17    0.28    0.59    0.19    0.16    0.09    0.08    0.08    0.07    0.08    0.08    0.06    0.06    0.31    0.55    0.27    0.23    0.24    0.22    0.23    0.25    0.35    0.65
   15 194   118     0     0    60.0    57.8     2.2     0.0   34.72   32.40    0.07    0.34    0.00   34.38   62.79   14.06    0.00    0.16     0.4     0.2    0.16    0.16    0.15    0.16    0.17    0.28    0.57    0.19    0.15    0.08    0.08    0.08    0.07    0.07    0.07    0.06    0.06    0.35    0.56    0.27    0.24    0.24    0.22    0.23    0.25    0.34    0.63
   15 195   119     0     0    59.8    57.6     2.2     0.0   35.19   32.81    0.07    0.34    0.00   34.85   63.41   14.06    0.00    0.19     0.4     0.2    0.17    0.17    0.15    0.16    0.18    0.27    0.55    0.20    0.15    0.08    0.08    0.08    0.07    0.07    0.07    0.06    0.06    0.38    0.57    0.28    0.24    0.24    0.22    0.23    0.25    0.33    0.61
   15 196   120     0     0    59.7    57.5     2.2     0.0   35.69   33.26    0.07    0.34    0.00   35.35   64.02   14.06    0.00    0.23     0.4     0.2    0.17    0.17    0.15    0.17    0.18    0.27    0.53    0.20    0.14    0.08    0.08    0.08    0.07    0.07    0.07    0.06    0.06    0.43    0.58    0.29    0.25    0.25    0.22    0.24    0.25    0.33    0.59
   15 197   121     0     0    59.6    57.5     2.2     0.0   36.23   33.73    0.07    0.34    0.00   35.89   64.62   14.06    0.00    0.28     0.5     0.2    0.18    0.18    0.16    0.17    0.18    0.27    0.52    0.20    0.14    0.08    0.07    0.08    0.07    0.07    0.07    0.06    0.06    0.48    0.60    0.30    0.26    0.26    0.23    0.24    0.26    0.33    0.58
   15 198   122     0     0    59.6    57.5     2.2     0.0   36.79   34.23    0.07    0.34    0.00   36.44   65.20   14.06    0.00    0.32     0.5     0.2    0.19    0.19    0.17    0.18    0.19    0.27    0.50    0.20    0.13    0.08    0.07    0.08    0.07    0.07    0.07    0.06    0.06    0.52    0.61    0.31    0.27    0.27    0.24    0.25    0.26    0.33    0.57
   15 199   123     0     0    59.6    57.5     2.2     0.0   37.35   34.75    0.07    0.34    0.00   37.01   65.77   14.06    0.00    0.37     0.5     0.2    0.21    0.20    0.18    0.19    0.20    0.27    0.49    0.20    0.12    0.07    0.07    0.07    0.07    0.07    0.07    0.07    0.06    0.57    0.63    0.32    0.28    0.28    0.25    0.26    0.27    0.33    0.56
   15 200   124     0     0    59.6    57.5     2.1     0.0   37.93   35.29    0.07    0.34    0.00   37.58   66.31   14.06    0.00    0.42     0.5     0.3    0.22    0.22    0.19    0.20    0.21    0.27    0.48    0.19    0.12    0.07    0.07    0.07    0.07    0.07    0.07    0.07    0.06    0.61    0.65    0.33    0.29    0.29    0.26    0.27    0.28    0.34    0.55
   15 201   125     0     0    59.7    57.6     2.1     0.0   38.50   35.83    0.07    0.34    0.00   38.16   66.84   14.06    0.00    0.47     0.6     0.3    0.23    0.23    0.20    0.21    0.22    0.27    0.48    0.19    0.11    0.07    0.07    0.07    0.07    0.07    0.07    0.07    0.06    0.65    0.67    0.35    0.30    0.30    0.27    0.28    0.29    0.34    0.54
   15 202   126     0     0    59.8    57.6     2.1     0.0   39.08   36.38    0.07    0.34    0.00   38.74   67.35   14.06    0.00    0.51     0.6     0.3    0.25    0.24    0.21    0.22    0.23    0.28    0.47    0.18    0.10    0.06    0.07    0.07    0.07    0.07    0.07    0.07    0.06    0.69    0.69    0.36    0.31    0.31    0.28    0.29    0.30    0.34    0.54
   15 203   127     0     0    59.8    57.7     2.1     0.0   39.66   36.93    0.07    0.34    0.00   39.32   67.85   14.06    0.00    0.55     0.6     0.3    0.26    0.26    0.22    0.23    0.24    0.28    0.47    0.17    0.10    0.06    0.06    0.07    0.07    0.07    0.07    0.07    0.07    0.72    0.71    0.37    0.33    0.33    0.29    0.30    0.31    0.35    0.53
   15 204   128     0     0    59.9    57.9     2.1     0.0   40.23   37.48    0.07    0.34    0.00   39.89   68.33   14.06    0.00    0.59     0.6     0.3    0.28    0.27    0.23    0.24    0.25    0.29    0.46    0.16    0.09    0.05    0.06    0.07    0.06    0.07    0.07    0.07    0.07    0.75    0.72    0.39    0.34    0.34    0.30    0.31    0.32    0.35    0.53
   15 205   129     0     0    60.0    58.0     2.0     0.0   40.79   38.03    0.07    0.34    0.00   40.45   68.79   14.06    0.00    0.63     0.7     0.3    0.30    0.29    0.24    0.25    0.26    0.29    0.46    0.16    0.08    0.05    0.06    0.06    0.06    0.07    0.07    0.07    0.07    0.79    0.74    0.40    0.35    0.35    0.31    0.32    0.33    0.36    0.53
   15 206   130     0     0    60.1    58.1     2.0     0.0   41.34   38.56    0.07    0.34    0.00   41.00   69.24   14.06    0.00    0.67     0.7     0.4    0.31    0.30    0.26    0.26    0.27    0.30    0.46    0.16    0.08    0.05    0.06    0.06    0.06    0.07    0.07    0.07    0.07    0.83    0.75    0.41    0.37    0.36    0.32    0.33    0.34    0.37    0.53
   15 207   131     0     0    60.2    58.2     2.0     0.0   41.86   39.06    0.07    0.34    0.00   41.52   69.67   14.06    0.00    0.71     0.7     0.4    0.32    0.31    0.27    0.27    0.27    0.30    0.46    0.15    0.08    0.05    0.05    0.06    0.06    0.07    0.07    0.07    0.07    0.86    0.77    0.42    0.38    0.37    0.33    0.34    0.34    0.37    0.52
   15 208   132     0     0    60.3    58.3     2.0     0.0   42.33   39.52    0.07    0.34    0.00   41.98   70.09   14.06    0.00    0.74     0.7     0.4    0.33    0.33    0.27    0.28    0.28    0.31    0.46    0.15    0.07    0.05    0.05    0.06    0.06    0.07    0.07    0.07    0.07    0.89    0.78    0.43    0.39    0.38    0.33    0.34    0.35    0.37    0.52
   15 209   133     0     0    60.3    58.3     2.0     0.0   42.77   39.94    0.07    0.34    0.00   42.43   70.50   14.06    0.00    0.77     0.7     0.4    0.34    0.34    0.28    0.28    0.29    0.31    0.45    0.16    0.07    0.05    0.05    0.06    0.06    0.06    0.07    0.06    0.06    0.93    0.79    0.43    0.39    0.39    0.34    0.35    0.36    0.37    0.52
   15 210   134     0     0    60.3    58.3     2.0     0.0   43.19   40.35    0.07    0.34    0.00   42.85   70.91   14.06    0.00    0.79     0.7     0.4    0.35    0.35    0.29    0.29    0.29    0.31    0.45    0.17    0.07    0.04    0.05    0.06    0.06    0.06    0.07    0.06    0.06    0.96    0.79    0.44    0.40    0.40    0.35    0.35    0.36    0.38    0.51
   15 211   135     0     0    60.3    58.3     1.9     0.0   43.58   40.72    0.07    0.34    0.00   43.24   71.33   14.06    0.00    0.79     0.7     0.4    0.36    0.35    0.30    0.30    0.30    0.31    0.45    0.18    0.07    0.04    0.05    0.05    0.06    0.06    0.07    0.06    0.06    0.97    0.80    0.45    0.41    0.41    0.35    0.36    0.36    0.38    0.51
   15 212   136     0     0    60.2    58.3     1.9     0.0   43.93   41.07    0.07    0.34    0.00   43.59   71.72   14.06    0.00    0.81     0.7     0.4    0.37    0.36    0.30    0.30    0.30    0.31    0.44    0.19    0.07    0.04    0.05    0.05    0.06    0.06    0.06    0.06    0.06    1.00    0.80    0.45    0.42    0.41    0.36    0.36    0.37    0.38    0.50
   15 213   137     0     0    60.2    58.3     1.9     0.0   44.29   41.41    0.07    0.34    0.00   43.94   72.08   14.06    0.00    0.85     0.7     0.4    0.38    0.37    0.31    0.30    0.30    0.31    0.44    0.19    0.07    0.04    0.05    0.05    0.05    0.06    0.06    0.06    0.06    1.04    0.81    0.46    0.42    0.42    0.36    0.37    0.37    0.38    0.50
   15 214   138     0     0    60.2    58.3     1.9     0.0   44.63   41.75    0.07    0.34    0.00   44.28   72.43   14.06    0.00    0.89     0.7     0.4    0.38    0.38    0.31    0.31    0.31    0.31    0.44    0.19    0.06    0.04    0.05    0.05    0.05    0.06    0.06    0.06    0.06    1.08    0.81    0.46    0.43    0.43    0.37    0.37    0.37    0.38    0.50
   15 215   139     0     0    60.2    58.3     1.9     0.0   44.97   42.09    0.07    0.34    0.00   44.63   72.78   14.06    0.00    0.92     0.8     0.4    0.39    0.38    0.32    0.31    0.31    0.32    0.43    0.19    0.06    0.04    0.05    0.05    0.05    0.06    0.06    0.06    0.06    1.11    0.82    0.47    0.43    0.43    0.37    0.37    0.37    0.38    0.49
   15 216   140     0     0    60.2    58.4     1.9     0.0   45.34   42.44    0.07    0.34    0.00   44.99   73.11   14.06    0.00    0.96     0.8     0.4    0.40    0.39    0.32    0.32    0.32    0.32    0.43    0.19    0.06    0.04    0.04    0.05    0.05    0.06    0.06    0.06    0.06    1.15    0.82    0.47    0.44    0.44    0.38    0.38    0.38    0.38    0.49
   15 217   141     0     0    60.3    58.5     1.9     0.0   45.74   42.82    0.07    0.34    0.00   45.39   73.43   14.06    0.00    1.00     0.8     0.4    0.41    0.40    0.33    0.33    0.32    0.32    0.43    0.18    0.06    0.04    0.04    0.05    0.05    0.06    0.06    0.06    0.06    1.18    0.83    0.48    0.45    0.45    0.38    0.38    0.38    0.38    0.49
   15 218   142     0     0    60.4    58.6     1.8     0.0   46.16   43.22    0.07    0.34    0.00   45.81   73.74   14.06    0.00    1.04     0.8     0.4    0.42    0.41    0.34    0.33    0.33    0.32    0.43    0.18    0.06    0.04    0.04    0.05    0.05    0.06    0.06    0.06    0.06    1.22    0.83    0.49    0.46    0.46    0.39    0.39    0.39    0.38    0.49
   15 219   143     0     0    60.6    58.7     1.8     0.0   46.60   43.65    0.07    0.34    0.00   46.26   74.04   14.06    0.00    1.08     0.8     0.5    0.43    0.42    0.35    0.34    0.34    0.33    0.43    0.17    0.05    0.04    0.04    0.04    0.05    0.06    0.06    0.06    0.06    1.25    0.84    0.50    0.47    0.47    0.40    0.40    0.40    0.39    0.49
   15 220   144     0     0    60.7    58.9     1.8     0.0   47.07   44.11    0.07    0.34    0.00   46.73   74.34   14.06    0.00    1.11     0.8     0.5    0.44    0.43    0.36    0.36    0.35    0.34    0.44    0.16    0.05    0.04    0.04    0.04    0.05    0.06    0.06    0.06    0.06    1.28    0.84    0.50    0.48    0.48    0.41    0.41    0.41    0.40    0.50
   15 221   145     0     0    60.9    59.1     1.8     0.0   47.56   44.59    0.07    0.34    0.00   47.22   74.62   14.06    0.00    1.16     0.8     0.5    0.45    0.45    0.38    0.37    0.36    0.35    0.44    0.16    0.05    0.04    0.04    0.04    0.05    0.05    0.06    0.06    0.06    1.32    0.85    0.51    0.49    0.49    0.42    0.42    0.42    0.41    0.50
   15 222   146     0     0    61.2    59.3     1.8     0.0   48.07   45.08    0.07    0.34    0.00   47.73   74.91   14.06    0.00    1.20     0.8     0.5    0.46    0.46    0.39    0.38    0.37    0.35    0.45    0.16    0.05    0.04    0.04    0.04    0.04    0.05    0.06    0.06    0.06    1.36    0.86    0.52    0.50    0.50    0.43    0.43    0.43    0.41    0.51
   15 223   147     0     0    61.4    59.6     1.8     0.0   48.59   45.59    0.07    0.34    0.00   48.24   75.19   14.06    0.00    1.25     0.8     0.5    0.47    0.47    0.40    0.39    0.39    0.36    0.45    0.15    0.04    0.04    0.04    0.04    0.04    0.05    0.06    0.06    0.06    1.40    0.86    0.53    0.51    0.51    0.44    0.44    0.44    0.42    0.51
   15 224   148     0     0    61.6    59.8     1.8     0.0   49.10   46.09    0.07    0.34    0.00   48.76   75.47   14.06    0.00    1.29     0.8     0.5    0.48    0.48    0.41    0.40    0.40    0.37    0.46    0.15    0.04    0.04    0.04    0.04    0.04    0.05    0.06    0.06    0.06    1.43    0.87    0.54    0.52    0.52    0.45    0.46    0.45    0.43    0.52
   15 225   149     0     0    62.1    60.3     1.8     0.0   49.61   46.59    0.07    0.34    0.00   49.26   75.47   14.06    0.00    1.32     0.8     0.5    0.49    0.49    0.42    0.42    0.41    0.39    0.48    0.14    0.04    0.04    0.03    0.04    0.04    0.05    0.06    0.06    0.06    1.46    0.88    0.55    0.53    0.53    0.47    0.47    0.47    0.45    0.54
   15 226   150     0     0    62.6    60.8     1.8     0.0   50.11   47.09    0.07    0.34    0.00   49.76   75.47   14.06    0.00    1.36     0.8     0.5    0.51    0.51    0.44    0.44    0.43    0.41    0.50    0.13    0.04    0.04    0.03    0.04    0.04    0.05    0.06    0.06    0.06    1.49    0.88    0.56    0.54    0.54    0.48    0.49    0.49    0.47    0.56
   15 227   151     0     0    63.2    61.3     1.8     0.0   50.65   47.60    0.07    0.34    0.00   50.30   75.47   14.06    0.00    1.41     0.8     0.5    0.52    0.52    0.45    0.45    0.45    0.43    0.51    0.16    0.04    0.04    0.03    0.04    0.04    0.05    0.06    0.06    0.06    1.57    0.89    0.57    0.55    0.55    0.49    0.50    0.51    0.49    0.58
   15 228   152     0     0    63.7    61.8     1.9     0.0   51.16   48.11    0.07    0.34    0.00   50.82   75.47   14.06    0.00    1.40     0.9     0.5    0.53    0.53    0.46    0.47    0.47    0.45    0.53    0.18    0.04    0.04    0.03    0.04    0.04    0.05    0.06    0.06    0.06    1.57    0.93    0.57    0.56    0.57    0.50    0.52    0.52    0.51    0.60
   15 229   153     0     0    64.2    62.3     1.9     0.0   51.68   48.58    0.07    0.34    0.00   51.34   75.47   14.06    0.00    1.28     1.0     0.5    0.54    0.54    0.47    0.48    0.48    0.46    0.55    0.24    0.04    0.04    0.03    0.04    0.04    0.05    0.06    0.06    0.06    1.52    1.03    0.58    0.57    0.58    0.52    0.54    0.54    0.52    0.61
   15 230   154     0     0    64.7    62.7     1.9     0.0   52.16   49.01    0.07    0.34    0.00   51.81   75.47   14.06    0.00    1.38     1.0     0.5    0.54    0.54    0.48    0.49    0.49    0.48    0.57    0.29    0.05    0.04    0.03    0.04    0.04    0.05    0.06    0.06    0.07    1.67    1.05    0.58    0.58    0.58    0.52    0.55    0.55    0.54    0.63
   15 231   155     0     0    65.1    63.1     2.0     0.0   52.59   49.42    0.07    0.34    0.00   52.25   75.47   14.06    0.00    1.80     0.9     0.6    0.54    0.53    0.48    0.50    0.50    0.49    0.60    0.32    0.06    0.04    0.03    0.04    0.04    0.05    0.06    0.06    0.06    2.12    0.98    0.59    0.57    0.57    0.52    0.55    0.56    0.55    0.66
   15 232   156     0     0    65.5    63.5     2.0     0.0   52.98   49.80    0.07    0.34    0.00   52.64   75.47   14.06    0.00    1.88     0.9     0.6    0.55    0.54    0.49    0.51    0.51    0.50    0.61    0.33    0.07    0.04    0.03    0.04    0.04    0.05    0.06    0.06    0.06    2.21    0.99    0.60    0.58    0.58    0.53    0.56    0.57    0.57    0.67
   15 233   157     0     0    65.9    63.9     2.0     0.0   53.34   50.17    0.07    0.34    0.00   53.00   75.47   14.06    0.00    1.95     0.9     0.6    0.55    0.55    0.50    0.52    0.52    0.51    0.62    0.34    0.07    0.04    0.03    0.04    0.04    0.05    0.06    0.06    0.06    2.29    1.00    0.60    0.59    0.58    0.54    0.57    0.58    0.58    0.69
   15 234   158     0     0    66.2    64.2     2.0     0.0   53.70   50.53    0.07    0.34    0.00   53.36   75.47   14.06    0.00    2.02     0.9     0.6    0.56    0.55    0.51    0.53    0.53    0.53    0.63    0.34    0.07    0.04    0.03    0.04    0.04    0.05    0.06    0.06    0.06    2.36    1.01    0.60    0.59    0.59    0.55    0.58    0.59    0.59    0.70
   15 235   159     0     0    66.6    64.6     2.0     0.0   54.06   50.90    0.07    0.34    0.00   53.72   75.47   14.06    0.00    2.09     0.9     0.6    0.56    0.56    0.51    0.54    0.54    0.54    0.65    0.33    0.08    0.04    0.03    0.04    0.04    0.05    0.06    0.06    0.06    2.43    1.03    0.61    0.60    0.59    0.55    0.59    0.60    0.60    0.71
   15 236   160     0     0    67.0    65.0     2.0     0.0   54.45   51.29    0.07    0.34    0.00   54.10   75.47   14.06    0.00    0.92     1.4     0.9    0.57    0.57    0.52    0.55    0.56    0.55    0.66    0.34    0.08    0.04    0.03    0.04    0.04    0.05    0.06    0.06    0.06    1.26    1.47    0.97    0.60    0.60    0.56    0.60    0.61    0.61    0.72
   15 237   161     0     0    67.4    65.4     2.1     0.0   54.93   51.67    0.07    0.34    0.00   54.59   75.47   14.06    0.00    1.14     1.3     1.1    0.57    0.56    0.52    0.56    0.56    0.56    0.69    0.37    0.13    0.04    0.03    0.04    0.04    0.05    0.06    0.06    0.06    1.51    1.48    1.11    0.60    0.59    0.56    0.61    0.62    0.62    0.75
