*SOIL WATER DAILY OUTPUT FILE

*DSSAT Cropping System Model Ver. 4.8.5.000 -release  NOV 27, 2025 15:48:13

*RUN   1        : 1                         WHAPS048 TUDU1501    1
 MODEL          : WHAPS048 - Wheat
 EXPERIMENT     : TUDU1501 WH
 DATA PATH      :
 TREATMENT  1   : 1                         WHAPS048
  
!                                                                                                                                   Soil water content (mm3/mm3) by soil depth (cm):
!                                                                                                                                   0-5    5-15   15-20   20-30   30-40   40-50   50-60   60-70   70-90  90-110 110-130 130-150 150-170 170-190 190-210
@YEAR DOY   DAS    SWTD    SWXD    ROFC    DRNC    PREC    IR#C    IRRC   LATFC    DTWT    MWTD    TDFD    TDFC    ROFD    ROSD    SW1D    SW2D    SW3D    SW4D    SW5D    SW6D    SW7D    SW8D    SW9D   SW10D   SW11D   SW12D   SW13D   SW14D   SW15D
   15 076     0     545     253       0       0       0       0       0       0     210    0.00     0.0     0.0    0.00    0.00   0.223   0.234   0.249   0.249   0.269   0.269   0.269   0.268   0.268   0.264   0.259   0.259   0.259   0.259   0.259
   15 077     1     542     251       0       0       0       0       0       0     210    0.00     0.0     0.0    0.00    0.00   0.223   0.230   0.246   0.247   0.267   0.267   0.268   0.267   0.267   0.263   0.258   0.258   0.258   0.258   0.258
   15 078     2     539     247       0       0       0       0       0       0     210    0.00     0.0     0.0    0.00    0.00   0.212   0.225   0.243   0.244   0.265   0.266   0.266   0.265   0.266   0.262   0.257   0.258   0.258   0.258   0.258
   15 079     3     538     246       0       0       0       0       0       0     210    0.00     0.0     0.0    0.00    0.00   0.194   0.224   0.242   0.244   0.265   0.266   0.266   0.265   0.266   0.262   0.257   0.258   0.258   0.258   0.258
   15 080     4     539     247       0       0       2       0       0       0     210    0.00     0.0     0.0    0.00    0.00   0.217   0.223   0.242   0.244   0.265   0.265   0.266   0.265   0.266   0.262   0.257   0.258   0.258   0.258   0.258
   15 081     5     538     246       0       0       2       0       0       0     210    0.00     0.0     0.0    0.00    0.00   0.203   0.222   0.242   0.244   0.265   0.265   0.266   0.265   0.266   0.262   0.257   0.258   0.258   0.258   0.258
   15 082     6     537     245       0       0       2       0       0       0     210    0.00     0.0     0.0    0.00    0.00   0.186   0.221   0.241   0.244   0.265   0.265   0.266   0.265   0.266   0.262   0.257   0.258   0.258   0.258   0.258
   15 083     7     536     245       0       0       2       0       0       0     210    0.00     0.0     0.0    0.00    0.00   0.171   0.220   0.241   0.243   0.264   0.265   0.266   0.265   0.266   0.262   0.257   0.257   0.258   0.258   0.258
   15 084     8     535     244       0       0       2       0       0       0     210    0.00     0.0     0.0    0.00    0.00   0.157   0.219   0.241   0.243   0.264   0.265   0.266   0.265   0.266   0.262   0.257   0.257   0.258   0.258   0.258
   15 085     9     534     243       0       0       2       0       0       0     210    0.00     0.0     0.0    0.00    0.00   0.149   0.218   0.240   0.243   0.264   0.265   0.266   0.265   0.266   0.262   0.257   0.257   0.258   0.258   0.258
   15 086    10     535     243       0       0       3       0       0       0     210    0.00     0.0     0.0    0.00    0.00   0.157   0.217   0.240   0.243   0.264   0.265   0.266   0.265   0.266   0.262   0.257   0.257   0.258   0.258   0.258
   15 087    11     534     243       0       0       3       0       0       0     210    0.00     0.0     0.0    0.00    0.00   0.145   0.216   0.239   0.243   0.264   0.265   0.266   0.265   0.266   0.262   0.257   0.257   0.258   0.258   0.258
   15 088    12     533     242       0       0       3       0       0       0     210    0.00     0.0     0.0    0.00    0.00   0.134   0.215   0.239   0.242   0.264   0.265   0.266   0.265   0.266   0.262   0.257   0.257   0.258   0.258   0.258
   15 089    13     539     248       0       0      10       0       0       0     210    0.00     0.0     0.0    0.00    0.00   0.243   0.223   0.239   0.242   0.264   0.265   0.266   0.265   0.266   0.262   0.257   0.257   0.258   0.258   0.258
   15 090    14     541     249       0       0      13       0       0       0     210    0.00     0.0     0.0    0.00    0.00   0.267   0.236   0.237   0.241   0.263   0.264   0.265   0.264   0.265   0.262   0.257   0.257   0.257   0.257   0.258
   15 091    15     542     250       0       0      16       0       0       0     210    0.00     0.0     0.0    0.00    0.00   0.277   0.248   0.246   0.240   0.262   0.263   0.264   0.264   0.264   0.261   0.256   0.257   0.257   0.257   0.257
   15 092    16     544     253       0       0      20       0       0       0     210    0.00     0.0     0.0    0.00    0.00   0.298   0.259   0.262   0.245   0.261   0.262   0.263   0.263   0.264   0.261   0.256   0.256   0.257   0.257   0.257
   15 093    17     541     250       0       0      20       0       0       0     210    0.00     0.0     0.0    0.00    0.00   0.253   0.247   0.254   0.259   0.265   0.261   0.262   0.262   0.263   0.260   0.255   0.256   0.256   0.256   0.256
   15 094    18     544     252       0       0      24       0       0       0     210    0.00     0.0     0.0    0.00    0.00   0.285   0.256   0.263   0.263   0.266   0.261   0.261   0.261   0.262   0.259   0.255   0.255   0.256   0.256   0.256
   15 095    19     542     250       0       0      24       0       0       0     210    0.00     0.0     0.0    0.00    0.00   0.252   0.248   0.256   0.261   0.266   0.270   0.269   0.261   0.262   0.259   0.254   0.255   0.255   0.256   0.256
   15 096    20     540     249       0       0      24       0       0       0     210    0.00     0.0     0.0    0.00    0.00   0.238   0.246   0.252   0.261   0.266   0.270   0.270   0.260   0.261   0.258   0.254   0.255   0.255   0.255   0.256
   15 097    21     537     245       0       0      24       0       0       0     210    0.00     0.0     0.0    0.00    0.00   0.225   0.241   0.249   0.258   0.264   0.268   0.268   0.259   0.260   0.257   0.253   0.254   0.254   0.255   0.255
   15 098    22     536     244       0       0      24       0       0       0     210    0.00     0.0     0.0    0.00    0.00   0.207   0.240   0.249   0.258   0.264   0.268   0.268   0.259   0.260   0.257   0.253   0.254   0.254   0.255   0.255
   15 099    23     535     243       0       0      24       0       0       0     210    0.00     0.0     0.0    0.00    0.00   0.189   0.238   0.248   0.258   0.264   0.268   0.268   0.259   0.260   0.257   0.253   0.254   0.254   0.255   0.255
   15 100    24     534     242       0       0      24       0       0       0     210    0.00     0.0     0.0    0.00    0.00   0.173   0.237   0.248   0.258   0.264   0.268   0.268   0.259   0.260   0.257   0.253   0.254   0.254   0.255   0.255
   15 101    25     533     241       0       0      24       0       0       0     210    0.00     0.0     0.0    0.00    0.00   0.158   0.235   0.247   0.257   0.263   0.268   0.268   0.259   0.260   0.257   0.253   0.254   0.254   0.255   0.255
   15 102    26     532     240       0       0      24       0       0       0     210    0.00     0.0     0.0    0.00    0.00   0.145   0.233   0.247   0.257   0.263   0.268   0.268   0.258   0.260   0.257   0.253   0.254   0.254   0.255   0.255
   15 103    27     531     240       0       0      24       0       0       0     210    0.00     0.0     0.0    0.00    0.00   0.134   0.231   0.246   0.257   0.263   0.268   0.268   0.258   0.260   0.257   0.253   0.254   0.254   0.255   0.255
   15 104    28     530     239       0       0      24       0       0       0     210    0.00     0.0     0.0    0.00    0.00   0.123   0.229   0.246   0.257   0.263   0.268   0.268   0.258   0.260   0.257   0.253   0.254   0.254   0.255   0.255
   15 105    29     529     238       0       0      24       0       0       0     210    0.00     0.0     0.0    0.00    0.00   0.114   0.227   0.246   0.256   0.263   0.268   0.268   0.258   0.260   0.257   0.253   0.254   0.254   0.255   0.255
   15 106    30     528     237       0       0      24       0       0       0     210    0.00     0.0     0.0    0.00    0.00   0.105   0.222   0.245   0.256   0.263   0.268   0.268   0.258   0.260   0.257   0.253   0.254   0.254   0.255   0.255
   15 107    31     550     259       0       0      48       0       0       0     210    0.00     0.0     0.0    0.21    0.00   0.313   0.297   0.301   0.271   0.269   0.270   0.267   0.258   0.259   0.257   0.253   0.253   0.254   0.254   0.255
   15 108    32     548     256       0       0      48       0       0       0     210    0.00     0.0     0.0    0.00    0.00   0.261   0.267   0.273   0.264   0.267   0.270   0.275   0.275   0.274   0.256   0.252   0.253   0.253   0.254   0.254
   15 109    33     544     252       0       0      48       0       0       0     210    0.00     0.0     0.0    0.00    0.00   0.232   0.250   0.259   0.261   0.265   0.269   0.274   0.274   0.274   0.263   0.251   0.252   0.253   0.253   0.253
   15 110    34     539     248       0       0      48       0       0       0     210    0.00     0.0     0.0    0.00    0.00   0.215   0.242   0.251   0.259   0.264   0.267   0.272   0.273   0.272   0.262   0.250   0.251   0.252   0.252   0.253
   15 111    35     538     246       0       0      48       0       0       0     210    0.00     0.0     0.0    0.00    0.00   0.193   0.239   0.250   0.258   0.264   0.267   0.272   0.273   0.272   0.262   0.250   0.251   0.252   0.252   0.253
   15 112    36     536     245       0       0      48       0       0       0     210    0.00     0.0     0.0    0.00    0.00   0.171   0.235   0.249   0.258   0.264   0.267   0.272   0.273   0.272   0.262   0.250   0.251   0.252   0.252   0.253
   15 113    37     535     243       0       0      48       0       0       0     210    0.00     0.0     0.0    0.00    0.00   0.152   0.230   0.247   0.257   0.264   0.267   0.272   0.273   0.272   0.262   0.250   0.251   0.252   0.252   0.253
   15 114    38     533     242       0       0      48       0       0       0     210    0.00     0.0     0.0    0.00    0.00   0.139   0.228   0.246   0.256   0.264   0.267   0.272   0.273   0.272   0.262   0.250   0.251   0.252   0.252   0.253
   15 115    39     533     241       0       0      49       0       0       0     210    0.00     0.0     0.0    0.00    0.00   0.144   0.222   0.244   0.255   0.263   0.267   0.272   0.273   0.272   0.262   0.250   0.251   0.252   0.252   0.253
   15 116    40     532     241       0       0      50       0       0       0     210    0.00     0.0     0.0    0.00    0.00   0.150   0.217   0.242   0.254   0.263   0.267   0.272   0.272   0.272   0.262   0.250   0.251   0.252   0.252   0.253
   15 117    41     536     244       0       0      55       0       0       0     210    0.00     0.0     0.0    0.00    0.00   0.225   0.216   0.239   0.252   0.262   0.267   0.272   0.272   0.272   0.262   0.250   0.251   0.252   0.252   0.253
   15 118    42     539     248       0       0      61       0       0       0     210    0.00     0.0     0.0    0.00    0.00   0.278   0.234   0.236   0.250   0.261   0.266   0.272   0.272   0.272   0.262   0.250   0.251   0.252   0.252   0.253
   15 119    43     536     245       0       0      61       0       0       0     210    0.00     0.0     0.0    0.00    0.00   0.244   0.240   0.233   0.248   0.259   0.265   0.270   0.271   0.271   0.261   0.249   0.250   0.251   0.252   0.252
   15 120    44     535     243       0       0      62       0       0       0     210    0.00     0.0     0.0    0.00    0.00   0.236   0.242   0.231   0.246   0.258   0.264   0.270   0.270   0.270   0.261   0.249   0.250   0.251   0.251   0.252
   15 121    45     560     269       3       0      92       0       0       0     210    0.00     0.0     0.0    2.95    0.00   0.309   0.317   0.322   0.304   0.283   0.276   0.274   0.270   0.270   0.260   0.249   0.250   0.250   0.251   0.252
   15 122    46     560     268       3       0      93       0       0       0     210    0.00     0.0     0.0    0.00    0.00   0.281   0.290   0.322   0.304   0.296   0.287   0.283   0.277   0.269   0.260   0.248   0.249   0.250   0.251   0.251
   15 123    47     569     278       3       0     104       0       0       0     210    0.00     0.0     0.0    0.08    0.00   0.311   0.310   0.322   0.315   0.308   0.299   0.294   0.285   0.274   0.260   0.248   0.249   0.250   0.251   0.251
   15 124    48     567     276       3       0     104       0       0       0     210    0.00     0.0     0.0    0.00    0.00   0.263   0.274   0.284   0.286   0.286   0.284   0.284   0.280   0.274   0.273   0.270   0.268   0.266   0.251   0.251
   15 125    49     568     276       3       0     107       0       0       0     210    0.00     0.0     0.0    0.00    0.00   0.271   0.266   0.289   0.282   0.286   0.287   0.288   0.284   0.276   0.274   0.269   0.267   0.265   0.250   0.251
   15 126    50     587     296       6       0     132       0       0       0     210    0.00     0.0     0.0    2.43    0.00   0.302   0.314   0.319   0.327   0.314   0.302   0.298   0.290   0.279   0.275   0.272   0.267   0.265   0.250   0.251
   15 127    51     574     283       6      11     132       0       0       0     210    0.00     0.0     0.0    0.00    0.00   0.258   0.276   0.282   0.292   0.289   0.285   0.286   0.283   0.276   0.275   0.271   0.268   0.266   0.263   0.262
   15 128    52     564     272       6      18     132       0       0       0     210    0.00     0.0     0.0    0.00    0.00   0.228   0.254   0.262   0.273   0.275   0.276   0.280   0.278   0.276   0.274   0.271   0.268   0.266   0.263   0.262
   15 129    53     564     272       6      18     136       0       0       0     210    0.00     0.0     0.0    0.00    0.00   0.254   0.250   0.263   0.267   0.272   0.275   0.280   0.279   0.277   0.274   0.270   0.267   0.265   0.262   0.262
   15 130    54     560     268       6      19     136       0       0       0     210    0.00     0.0     0.0    0.00    0.00   0.234   0.244   0.254   0.262   0.267   0.271   0.277   0.277   0.277   0.273   0.270   0.268   0.266   0.263   0.262
   15 131    55     556     264       6      19     136       0       0       0     210    0.00     0.0     0.0    0.00    0.00   0.215   0.237   0.248   0.258   0.264   0.268   0.274   0.276   0.276   0.273   0.270   0.267   0.265   0.262   0.261
   15 132    56     551     259       6      19     136       0       0       0     210    0.00     0.0     0.0    0.00    0.00   0.192   0.227   0.240   0.252   0.259   0.264   0.271   0.275   0.276   0.273   0.269   0.267   0.265   0.262   0.261
   15 133    57     551     259       6      19     142       0       0       0     210    0.00     0.0     0.0    0.00    0.00   0.251   0.231   0.229   0.243   0.251   0.258   0.267   0.274   0.275   0.272   0.269   0.267   0.265   0.262   0.261
   15 134    58     547     256       6      19     142       0       0       0     210    0.00     0.0     0.0    0.00    0.00   0.229   0.229   0.224   0.240   0.248   0.255   0.265   0.273   0.275   0.272   0.269   0.266   0.265   0.262   0.261
   15 135    59     546     254       6      19     142       0       0       0     210    0.00     0.0     0.0    0.00    0.00   0.216   0.226   0.222   0.238   0.246   0.254   0.264   0.273   0.275   0.272   0.269   0.266   0.265   0.262   0.261
   15 136    60     544     252       6      19     142       0       0       0     210    0.00     0.0     0.0    0.00    0.00   0.197   0.223   0.220   0.237   0.246   0.253   0.263   0.273   0.275   0.272   0.269   0.266   0.265   0.262   0.261
   15 137    61     541     250       6      19     143       0       0       0     210    0.00     0.0     0.0    0.00    0.00   0.194   0.217   0.215   0.232   0.242   0.250   0.261   0.271   0.275   0.272   0.269   0.266   0.264   0.262   0.261
   15 138    62     539     248       6      19     143       0       0       0     210    0.00     0.0     0.0    0.00    0.00   0.175   0.213   0.213   0.231   0.240   0.249   0.260   0.270   0.275   0.272   0.269   0.266   0.264   0.262   0.261
   15 139    63     551     260       6      19     159       0       0       0     210    0.00     0.0     0.0    0.01    0.00   0.308   0.265   0.252   0.228   0.235   0.244   0.256   0.268   0.274   0.272   0.268   0.266   0.264   0.262   0.261
   15 140    64     568     277       7      19     179       0       0       0     210    0.00     0.0     0.0    1.48    0.00   0.316   0.318   0.322   0.287   0.260   0.243   0.255   0.267   0.274   0.272   0.268   0.266   0.264   0.262   0.261
   15 141    65     569     277       7      19     180       0       0       0     210    0.00     0.0     0.0    0.00    0.00   0.289   0.292   0.323   0.297   0.281   0.257   0.255   0.267   0.274   0.271   0.268   0.266   0.264   0.261   0.261
   15 142    66     566     275       7      20     180       0       0       0     210    0.00     0.0     0.0    0.00    0.00   0.258   0.267   0.286   0.278   0.273   0.270   0.275   0.275   0.275   0.273   0.270   0.268   0.266   0.263   0.262
   15 143    67     568     276       7      20     183       0       0       0     210    0.00     0.0     0.0    0.00    0.00   0.274   0.263   0.286   0.277   0.277   0.275   0.277   0.277   0.275   0.273   0.270   0.268   0.266   0.263   0.262
   15 144    68     567     276       7      20     184       0       0       0     210    0.00     0.0     0.0    0.00    0.00   0.263   0.259   0.282   0.276   0.278   0.278   0.280   0.278   0.276   0.273   0.270   0.268   0.266   0.263   0.262
   15 145    69     563     271       7      24     184       0       0       0     210    0.00     0.0     0.0    0.00    0.00   0.246   0.251   0.266   0.268   0.272   0.274   0.277   0.278   0.276   0.273   0.270   0.268   0.266   0.263   0.262
   15 146    70     560     269       7      25     184       0       0       0     210    0.00     0.0     0.0    0.00    0.00   0.236   0.246   0.257   0.263   0.268   0.273   0.276   0.277   0.275   0.273   0.270   0.268   0.266   0.263   0.262
   15 147    71     559     268       7      25     184       0       0       0     210    0.00     0.0     0.0    0.00    0.00   0.233   0.244   0.253   0.262   0.267   0.272   0.276   0.276   0.275   0.273   0.270   0.268   0.266   0.263   0.262
   15 148    72     558     267       7      25     184       0       0       0     210    0.00     0.0     0.0    0.00    0.00   0.228   0.242   0.251   0.261   0.266   0.271   0.275   0.276   0.275   0.273   0.270   0.268   0.266   0.263   0.262
   15 149    73     556     264       7      25     184       0       0       0     210    0.00     0.0     0.0    0.00    0.00   0.212   0.238   0.248   0.258   0.263   0.269   0.273   0.274   0.274   0.273   0.270   0.268   0.266   0.263   0.262
   15 150    74     553     262       7      25     184       0       0       0     210    0.00     0.0     0.0    0.00    0.00   0.200   0.234   0.244   0.256   0.261   0.267   0.272   0.273   0.274   0.273   0.270   0.268   0.266   0.263   0.262
   15 151    75     552     261       7      25     184       0       0       0     210    0.00     0.0     0.0    0.00    0.00   0.190   0.232   0.243   0.255   0.260   0.266   0.271   0.273   0.274   0.273   0.270   0.268   0.266   0.263   0.262
   15 152    76     551     259       7      25     184       0       0       0     210    0.00     0.0     0.0    0.00    0.00   0.178   0.229   0.240   0.253   0.259   0.265   0.270   0.272   0.274   0.273   0.270   0.268   0.266   0.263   0.262
   15 153    77     548     257       7      25     184       0       0       0     210    0.00     0.0     0.0    0.00    0.00   0.166   0.225   0.237   0.250   0.256   0.263   0.268   0.271   0.273   0.273   0.270   0.268   0.266   0.263   0.262
   15 154    78     546     254       7      25     184       0       0       0     210    0.00     0.0     0.0    0.00    0.00   0.152   0.220   0.233   0.247   0.254   0.260   0.266   0.269   0.273   0.273   0.270   0.268   0.266   0.263   0.262
   15 155    79     541     250       7      25     184       0       0       0     210    0.00     0.0     0.0    0.00    0.00   0.137   0.213   0.225   0.241   0.249   0.256   0.263   0.267   0.272   0.273   0.270   0.268   0.266   0.263   0.262
   15 156    80     537     246       7      25     184       0       0       0     210    0.00     0.0     0.0    0.00    0.00   0.124   0.205   0.218   0.235   0.244   0.252   0.259   0.264   0.271   0.273   0.270   0.268   0.266   0.263   0.262
   15 157    81     536     245       7      25     187       0       0       0     210    0.00     0.0     0.0    0.00    0.00   0.173   0.199   0.211   0.230   0.239   0.247   0.256   0.261   0.270   0.272   0.270   0.268   0.266   0.263   0.262
   15 158    82     532     241       7      25     187       0       0       0     210    0.00     0.0     0.0    0.00    0.00   0.156   0.193   0.204   0.224   0.233   0.243   0.252   0.258   0.269   0.272   0.270   0.268   0.266   0.263   0.262
   15 159    83     545     254       7      25     203       0       0       0     210    0.00     0.0     0.0    0.00    0.00   0.315   0.254   0.222   0.219   0.229   0.239   0.249   0.256   0.268   0.272   0.270   0.268   0.266   0.263   0.262
   15 160    84     544     252       7      25     203       0       0       0     210    0.00     0.0     0.0    0.00    0.00   0.271   0.248   0.250   0.226   0.228   0.238   0.248   0.255   0.268   0.272   0.270   0.268   0.266   0.263   0.262
   15 161    85     544     252       7      25     203       0       0       0     210    0.00     0.0     0.0    0.00    0.00   0.252   0.247   0.252   0.234   0.228   0.238   0.248   0.255   0.268   0.272   0.270   0.268   0.266   0.263   0.262
   15 162    86     542     251       7      25     203       0       0       0     210    0.00     0.0     0.0    0.00    0.00   0.239   0.245   0.250   0.236   0.226   0.237   0.247   0.254   0.267   0.272   0.269   0.268   0.266   0.263   0.262
   15 163    87     539     248       7      25     203       0       0       0     210    0.00     0.0     0.0    0.00    0.00   0.228   0.240   0.245   0.233   0.223   0.234   0.245   0.252   0.266   0.271   0.269   0.267   0.265   0.263   0.262
   15 164    88     540     249       7      25     211       0       0       0     210    0.00     0.0     0.0    0.00    0.00   0.294   0.248   0.252   0.230   0.216   0.228   0.239   0.248   0.265   0.270   0.269   0.267   0.265   0.262   0.261
   15 165    89     555     263       8      25     231       0       0       0     210    0.00     0.0     0.0    1.22    0.00   0.304   0.313   0.317   0.273   0.228   0.224   0.236   0.245   0.263   0.270   0.269   0.267   0.265   0.262   0.261
   15 166    90     570     278      11      25     252       0       0       0     210    0.00     0.0     0.0    2.15    0.00   0.308   0.314   0.318   0.326   0.299   0.256   0.233   0.243   0.262   0.269   0.269   0.267   0.265   0.262   0.261
   15 167    91     569     277      11      25     252       0       0       0     210    0.00     0.0     0.0    0.00    0.00   0.269   0.279   0.284   0.293   0.282   0.270   0.275   0.276   0.275   0.269   0.269   0.267   0.265   0.262   0.261
   15 168    92     563     271      11      29     252       0       0       0     210    0.00     0.0     0.0    0.00    0.00   0.243   0.258   0.264   0.275   0.272   0.269   0.274   0.274   0.274   0.272   0.270   0.268   0.266   0.263   0.262
   15 169    93     571     279      11      29     263       0       0       0     210    0.00     0.0     0.0    0.00    0.00   0.312   0.283   0.295   0.277   0.276   0.273   0.277   0.273   0.273   0.272   0.270   0.268   0.266   0.263   0.262
   15 170    94     564     273      11      34     263       0       0       0     210    0.00     0.0     0.0    0.00    0.00   0.269   0.262   0.272   0.268   0.270   0.272   0.276   0.275   0.275   0.273   0.270   0.268   0.266   0.263   0.262
   15 171    95     561     270      11      36     263       0       0       0     210    0.00     0.0     0.0    0.00    0.00   0.248   0.252   0.260   0.263   0.269   0.271   0.275   0.275   0.275   0.273   0.270   0.268   0.266   0.263   0.262
   15 172    96     559     268      11      36     263       0       0       0     210    0.00     0.0     0.0    0.00    0.00   0.237   0.247   0.254   0.262   0.267   0.270   0.275   0.275   0.275   0.273   0.270   0.268   0.266   0.263   0.262
   15 173    97     567     276      11      36     273       0       0       0     210    0.00     0.0     0.0    0.00    0.00   0.315   0.272   0.280   0.267   0.269   0.272   0.274   0.274   0.274   0.272   0.270   0.268   0.266   0.263   0.262
   15 174    98     567     275      11      36     275       0       0       0     210    0.00     0.0     0.0    0.00    0.00   0.292   0.268   0.289   0.272   0.272   0.273   0.276   0.273   0.273   0.271   0.270   0.268   0.266   0.263   0.262
   15 175    99     562     270      11      39     275       0       0       0     210    0.00     0.0     0.0    0.00    0.00   0.257   0.254   0.267   0.265   0.267   0.271   0.275   0.275   0.274   0.272   0.270   0.268   0.266   0.263   0.262
   15 176   100     558     266      11      40     275       0       0       0     210    0.00     0.0     0.0    0.00    0.00   0.235   0.244   0.254   0.261   0.264   0.268   0.273   0.274   0.274   0.272   0.270   0.268   0.266   0.263   0.262
   15 177   101     553     261      11      40     275       0       0       0     210    0.00     0.0     0.0    0.00    0.00   0.220   0.237   0.247   0.255   0.259   0.264   0.270   0.271   0.272   0.270   0.269   0.268   0.266   0.263   0.262
   15 178   102     547     256      11      40     275       0       0       0     210    0.00     0.0     0.0    0.00    0.00   0.199   0.228   0.239   0.248   0.253   0.259   0.265   0.267   0.270   0.269   0.269   0.268   0.266   0.263   0.262
   15 179   103     544     253      11      40     275       0       0       0     210    0.00     0.0     0.0    0.00    0.00   0.184   0.224   0.235   0.245   0.250   0.256   0.263   0.266   0.269   0.268   0.269   0.268   0.266   0.263   0.262
   15 180   104     541     249      11      40     275       0       0       0     210    0.00     0.0     0.0    0.00    0.00   0.168   0.219   0.230   0.241   0.247   0.253   0.261   0.263   0.268   0.267   0.268   0.268   0.266   0.263   0.262
   15 181   105     535     244      11      40     275       0       0       0     210    0.00     0.0     0.0    0.00    0.00   0.148   0.211   0.222   0.235   0.241   0.248   0.257   0.260   0.266   0.265   0.268   0.268   0.266   0.263   0.262
   15 182   106     527     236      11      40     275       0       0       0     210    0.00     0.0     0.0    0.00    0.00   0.129   0.201   0.209   0.225   0.232   0.240   0.250   0.254   0.263   0.262   0.267   0.268   0.266   0.263   0.262
   15 183   107     520     229      11      40     275       0       0       0     210    0.00     0.0     0.0    0.00    0.00   0.116   0.191   0.197   0.215   0.223   0.233   0.243   0.249   0.260   0.260   0.267   0.268   0.266   0.263   0.262
   15 184   108     513     221      11      40     275       0       0       0     210    0.00     0.0     0.0    0.00    0.00   0.107   0.183   0.185   0.206   0.214   0.225   0.237   0.243   0.257   0.257   0.266   0.268   0.266   0.263   0.262
   15 185   109     506     214      11      40     275       0       0       0     210    0.00     0.0     0.0    0.00    0.00   0.100   0.175   0.172   0.198   0.206   0.216   0.230   0.237   0.254   0.254   0.265   0.268   0.266   0.263   0.262
   15 186   110     499     207      11      40     275       0       0       0     210    0.00     0.0     0.0    0.00    0.00   0.094   0.167   0.160   0.190   0.197   0.207   0.222   0.231   0.250   0.250   0.264   0.268   0.266   0.263   0.262
   15 187   111     492     200      11      40     275       0       0       0     210    0.00     0.0     0.0    0.00    0.00   0.089   0.160   0.150   0.183   0.190   0.199   0.214   0.224   0.246   0.247   0.264   0.268   0.266   0.263   0.262
   15 188   112     491     199      11      40     279       0       0       0     210    0.00     0.0     0.0    0.00    0.00   0.160   0.155   0.145   0.178   0.185   0.194   0.208   0.219   0.244   0.244   0.263   0.268   0.266   0.263   0.262
   15 189   113     490     199      11      40     285       0       0       0     210    0.00     0.0     0.0    0.00    0.00   0.238   0.160   0.140   0.172   0.179   0.187   0.201   0.213   0.240   0.241   0.262   0.267   0.266   0.263   0.262
   15 190   114     488     196      11      40     285       0       0       0     210    0.00     0.0     0.0    0.00    0.00   0.227   0.158   0.138   0.171   0.177   0.186   0.199   0.211   0.239   0.239   0.262   0.267   0.266   0.263   0.262
   15 191   115     484     193      11      40     285       0       0       0     210    0.00     0.0     0.0    0.00    0.00   0.200   0.156   0.137   0.169   0.176   0.184   0.196   0.208   0.237   0.238   0.262   0.267   0.266   0.263   0.262
   15 192   116     479     187      11      40     285       0       0       0     210    0.00     0.0     0.0    0.00    0.00   0.167   0.151   0.134   0.165   0.172   0.179   0.192   0.204   0.234   0.235   0.261   0.267   0.266   0.263   0.262
   15 193   117     471     180      11      40     285       0       0       0     210    0.00     0.0     0.0    0.00    0.00   0.136   0.145   0.130   0.160   0.166   0.174   0.184   0.196   0.230   0.231   0.260   0.267   0.266   0.263   0.262
   15 194   118     467     176      11      40     286       0       0       0     210    0.00     0.0     0.0    0.00    0.00   0.143   0.142   0.128   0.156   0.163   0.169   0.180   0.189   0.226   0.228   0.259   0.266   0.266   0.263   0.262
   15 195   119     465     174      11      40     286       0       0       0     210    0.00     0.0     0.0    0.00    0.00   0.131   0.140   0.128   0.156   0.162   0.168   0.178   0.188   0.225   0.227   0.259   0.266   0.266   0.263   0.262
   15 196   120     462     171      11      40     286       0       0       0     210    0.00     0.0     0.0    0.00    0.00   0.118   0.138   0.127   0.154   0.160   0.166   0.176   0.184   0.223   0.224   0.258   0.266   0.266   0.263   0.262
   15 197   121     458     166      11      40     286       0       0       0     210    0.00     0.0     0.0    0.00    0.00   0.108   0.135   0.126   0.151   0.157   0.163   0.172   0.179   0.219   0.221   0.258   0.266   0.266   0.263   0.262
   15 198   122     451     159      11      40     286       0       0       0     210    0.00     0.0     0.0    0.00    0.00   0.101   0.130   0.124   0.146   0.152   0.158   0.166   0.171   0.212   0.214   0.256   0.265   0.266   0.263   0.262
   15 199   123     445     153      11      40     286       0       0       0     210    0.00     0.0     0.0    0.00    0.00   0.095   0.126   0.123   0.143   0.148   0.154   0.161   0.165   0.205   0.208   0.254   0.264   0.266   0.263   0.262
   15 200   124     440     149      11      40     286       0       0       0     210    0.00     0.0     0.0    0.00    0.00   0.089   0.124   0.123   0.141   0.146   0.151   0.158   0.161   0.199   0.202   0.253   0.264   0.266   0.263   0.262
   15 201   125     437     145      11      40     286       0       0       0     210    0.00     0.0     0.0    0.00    0.00   0.084   0.122   0.123   0.139   0.145   0.149   0.156   0.159   0.194   0.198   0.252   0.263   0.266   0.263   0.262
   15 202   126     433     142      11      40     286       0       0       0     210    0.00     0.0     0.0    0.00    0.00   0.080   0.121   0.123   0.138   0.143   0.148   0.154   0.156   0.189   0.193   0.251   0.263   0.266   0.263   0.262
   15 203   127     428     136      11      40     286       0       0       0     210    0.00     0.0     0.0    0.00    0.00   0.075   0.119   0.123   0.136   0.141   0.146   0.151   0.153   0.181   0.184   0.249   0.263   0.266   0.263   0.262
   15 204   128     423     131      11      40     287       0       0       0     210    0.00     0.0     0.0    0.00    0.00   0.091   0.118   0.122   0.134   0.140   0.144   0.149   0.150   0.172   0.174   0.245   0.263   0.266   0.263   0.262
   15 205   129     421     130      11      40     287       0       0       0     210    0.00     0.0     0.0    0.00    0.00   0.085   0.118   0.122   0.134   0.139   0.143   0.149   0.149   0.170   0.172   0.245   0.263   0.265   0.263   0.262
   15 206   130     417     126      11      40     287       0       0       0     210    0.00     0.0     0.0    0.00    0.00   0.081   0.117   0.122   0.133   0.138   0.143   0.148   0.148   0.163   0.163   0.245   0.263   0.265   0.263   0.262
   15 207   131     414     123      11      40     287       0       0       0     210    0.00     0.0     0.0    0.00    0.00   0.076   0.117   0.122   0.133   0.138   0.142   0.147   0.147   0.157   0.157   0.245   0.263   0.265   0.263   0.262
   15 208   132     415     123      11      40     290       0       0       0     210    0.00     0.0     0.0    0.00    0.00   0.130   0.116   0.122   0.133   0.138   0.142   0.147   0.147   0.146   0.157   0.245   0.263   0.265   0.263   0.262
   15 209   133     414     123      11      40     291       0       0       0     210    0.00     0.0     0.0    0.00    0.00   0.118   0.116   0.122   0.133   0.138   0.142   0.147   0.147   0.146   0.157   0.245   0.263   0.265   0.263   0.262
   15 210   134     414     123      11      40     292       0       0       0     210    0.00     0.0     0.0    0.00    0.00   0.119   0.115   0.121   0.133   0.138   0.142   0.147   0.147   0.146   0.157   0.245   0.263   0.265   0.263   0.262
   15 211   135     413     122      11      40     292       0       0       0     210    0.00     0.0     0.0    0.00    0.00   0.100   0.115   0.121   0.133   0.138   0.142   0.147   0.147   0.146   0.157   0.245   0.263   0.265   0.263   0.262
   15 212   136     413     121      11      40     292       0       0       0     210    0.00     0.0     0.0    0.00    0.00   0.094   0.114   0.121   0.133   0.138   0.142   0.147   0.147   0.146   0.157   0.245   0.263   0.265   0.263   0.262
   15 213   137     412     121      11      40     292       0       0       0     210    0.00     0.0     0.0    0.00    0.00   0.089   0.114   0.121   0.132   0.138   0.142   0.147   0.147   0.146   0.157   0.244   0.263   0.265   0.263   0.262
   15 214   138     412     121      11      40     292       0       0       0     210    0.00     0.0     0.0    0.00    0.00   0.084   0.114   0.121   0.132   0.138   0.142   0.147   0.147   0.146   0.157   0.244   0.263   0.265   0.263   0.262
   15 215   139     412     120      11      40     292       0       0       0     210    0.00     0.0     0.0    0.00    0.00   0.079   0.113   0.121   0.132   0.138   0.142   0.147   0.147   0.146   0.157   0.244   0.263   0.265   0.263   0.262
   15 216   140     411     120      11      40     292       0       0       0     210    0.00     0.0     0.0    0.00    0.00   0.075   0.113   0.120   0.132   0.138   0.142   0.147   0.147   0.146   0.157   0.244   0.263   0.265   0.263   0.262
   15 217   141     411     120      11      40     292       0       0       0     210    0.00     0.0     0.0    0.00    0.00   0.071   0.112   0.120   0.132   0.138   0.142   0.147   0.147   0.146   0.157   0.244   0.263   0.265   0.263   0.262
   15 218   142     411     119      11      40     292       0       0       0     210    0.00     0.0     0.0    0.00    0.00   0.068   0.112   0.120   0.132   0.137   0.142   0.147   0.147   0.146   0.157   0.244   0.263   0.265   0.263   0.262
   15 219   143     411     119      11      40     292       0       0       0     210    0.00     0.0     0.0    0.00    0.00   0.064   0.111   0.120   0.132   0.137   0.142   0.147   0.147   0.146   0.157   0.244   0.263   0.265   0.262   0.262
   15 220   144     411     120      11      40     293       0       0       0     210    0.00     0.0     0.0    0.00    0.00   0.081   0.111   0.120   0.132   0.137   0.142   0.147   0.147   0.146   0.157   0.244   0.263   0.265   0.262   0.262
   15 221   145     411     120      11      40     293       0       0       0     210    0.00     0.0     0.0    0.00    0.00   0.076   0.110   0.120   0.132   0.137   0.142   0.147   0.147   0.146   0.157   0.244   0.263   0.265   0.262   0.262
   15 222   146     411     119      11      40     293       0       0       0     210    0.00     0.0     0.0    0.00    0.00   0.072   0.110   0.120   0.132   0.137   0.142   0.147   0.147   0.146   0.157   0.244   0.263   0.265   0.262   0.262
   15 223   147     410     119      11      40     293       0       0       0     210    0.00     0.0     0.0    0.00    0.00   0.069   0.110   0.119   0.132   0.137   0.142   0.147   0.147   0.146   0.157   0.244   0.263   0.265   0.262   0.262
   15 224   148     410     119      11      40     293       0       0       0     210    0.00     0.0     0.0    0.00    0.00   0.066   0.109   0.119   0.132   0.137   0.142   0.147   0.147   0.146   0.157   0.244   0.263   0.265   0.262   0.262
   15 225   149     410     119      11      40     293       0       0       0     210    0.00     0.0     0.0    0.00    0.00   0.063   0.109   0.119   0.131   0.137   0.141   0.147   0.147   0.146   0.157   0.244   0.263   0.265   0.262   0.262
   15 226   150     414     122      11      40     297       0       0       0     210    0.00     0.0     0.0    0.00    0.00   0.136   0.108   0.119   0.131   0.137   0.141   0.147   0.147   0.146   0.157   0.244   0.263   0.265   0.262   0.262
   15 227   151     413     122      11      40     297       0       0       0     210    0.00     0.0     0.0    0.00    0.00   0.127   0.108   0.119   0.131   0.137   0.141   0.147   0.147   0.146   0.157   0.244   0.263   0.265   0.262   0.262
   15 228   152     418     127      11      40     303       0       0       0     210    0.00     0.0     0.0    0.00    0.00   0.228   0.110   0.119   0.131   0.137   0.141   0.147   0.147   0.146   0.157   0.244   0.263   0.265   0.262   0.262
   15 229   153     421     130      11      40     307       0       0       0     210    0.00     0.0     0.0    0.00    0.00   0.268   0.125   0.118   0.131   0.137   0.141   0.146   0.146   0.145   0.156   0.244   0.262   0.265   0.262   0.261
   15 230   154     417     126      11      40     307       0       0       0     210    0.00     0.0     0.0    0.00    0.00   0.229   0.129   0.116   0.129   0.135   0.140   0.145   0.145   0.145   0.155   0.242   0.261   0.264   0.261   0.260
   15 231   155     416     125      11      40     307       0       0       0     210    0.00     0.0     0.0    0.00    0.00   0.211   0.129   0.116   0.129   0.135   0.140   0.145   0.145   0.145   0.155   0.242   0.261   0.264   0.261   0.260
   15 232   156     415     124      11      40     307       0       0       0     210    0.00     0.0     0.0    0.00    0.00   0.195   0.128   0.115   0.128   0.135   0.140   0.145   0.145   0.145   0.155   0.242   0.261   0.264   0.261   0.260
   15 233   157     414     123      11      40     307       0       0       0     210    0.00     0.0     0.0    0.00    0.00   0.181   0.128   0.115   0.128   0.135   0.139   0.145   0.145   0.144   0.155   0.242   0.261   0.264   0.261   0.260
   15 234   158     414     122      11      40     307       0       0       0     210    0.00     0.0     0.0    0.00    0.00   0.167   0.127   0.115   0.128   0.135   0.139   0.145   0.145   0.144   0.155   0.242   0.261   0.264   0.261   0.260
   15 235   159     415     123      11      40     309       0       0       0     210    0.00     0.0     0.0    0.00    0.00   0.193   0.127   0.115   0.128   0.135   0.139   0.145   0.145   0.144   0.155   0.242   0.261   0.264   0.261   0.260
   15 236   160     431     140      11      40     330       0       0       0     210    0.00     0.0     0.0    0.13    0.00   0.298   0.253   0.138   0.126   0.133   0.138   0.144   0.144   0.144   0.154   0.241   0.259   0.262   0.260   0.259
   15 237   161     429     137      11      40     332       0       0       0     210    0.00     0.0     0.0    0.00    0.00   0.265   0.252   0.165   0.125   0.132   0.137   0.142   0.143   0.143   0.154   0.239   0.258   0.261   0.259   0.258

*DSSAT Cropping System Model Ver. 4.8.5.000 -release  NOV 27, 2025 15:48:13

*RUN   2        : 2                         WHAPS048 TUDU1501    2
 MODEL          : WHAPS048 - Wheat
 EXPERIMENT     : TUDU1501 WH
 DATA PATH      :
 TREATMENT  2   : 2                         WHAPS048
  
!                                                                                                                                   Soil water content (mm3/mm3) by soil depth (cm):
!                                                                                                                                   0-5    5-15   15-20   20-30   30-40   40-50   50-60   60-70   70-90  90-110 110-130 130-150 150-170 170-190 190-210
@YEAR DOY   DAS    SWTD    SWXD    ROFC    DRNC    PREC    IR#C    IRRC   LATFC    DTWT    MWTD    TDFD    TDFC    ROFD    ROSD    SW1D    SW2D    SW3D    SW4D    SW5D    SW6D    SW7D    SW8D    SW9D   SW10D   SW11D   SW12D   SW13D   SW14D   SW15D
   15 076     0     545     253       0       0       0       0       0       0     210    0.00     0.0     0.0    0.00    0.00   0.223   0.234   0.249   0.249   0.269   0.269   0.269   0.268   0.268   0.264   0.259   0.259   0.259   0.259   0.259
   15 077     1     542     251       0       0       0       0       0       0     210    0.00     0.0     0.0    0.00    0.00   0.223   0.230   0.246   0.247   0.267   0.267   0.268   0.267   0.267   0.263   0.258   0.258   0.258   0.258   0.258
   15 078     2     539     247       0       0       0       0       0       0     210    0.00     0.0     0.0    0.00    0.00   0.212   0.225   0.243   0.244   0.265   0.266   0.266   0.265   0.266   0.262   0.257   0.258   0.258   0.258   0.258
   15 079     3     538     246       0       0       0       0       0       0     210    0.00     0.0     0.0    0.00    0.00   0.194   0.224   0.242   0.244   0.265   0.266   0.266   0.265   0.266   0.262   0.257   0.258   0.258   0.258   0.258
   15 080     4     539     247       0       0       2       0       0       0     210    0.00     0.0     0.0    0.00    0.00   0.217   0.223   0.242   0.244   0.265   0.265   0.266   0.265   0.266   0.262   0.257   0.258   0.258   0.258   0.258
   15 081     5     538     246       0       0       2       0       0       0     210    0.00     0.0     0.0    0.00    0.00   0.203   0.222   0.242   0.244   0.265   0.265   0.266   0.265   0.266   0.262   0.257   0.258   0.258   0.258   0.258
   15 082     6     537     245       0       0       2       0       0       0     210    0.00     0.0     0.0    0.00    0.00   0.186   0.221   0.241   0.244   0.265   0.265   0.266   0.265   0.266   0.262   0.257   0.258   0.258   0.258   0.258
   15 083     7     536     245       0       0       2       0       0       0     210    0.00     0.0     0.0    0.00    0.00   0.171   0.220   0.241   0.243   0.264   0.265   0.266   0.265   0.266   0.262   0.257   0.257   0.258   0.258   0.258
   15 084     8     535     244       0       0       2       0       0       0     210    0.00     0.0     0.0    0.00    0.00   0.157   0.219   0.241   0.243   0.264   0.265   0.266   0.265   0.266   0.262   0.257   0.257   0.258   0.258   0.258
   15 085     9     534     243       0       0       2       0       0       0     210    0.00     0.0     0.0    0.00    0.00   0.149   0.218   0.240   0.243   0.264   0.265   0.266   0.265   0.266   0.262   0.257   0.257   0.258   0.258   0.258
   15 086    10     535     243       0       0       3       0       0       0     210    0.00     0.0     0.0    0.00    0.00   0.157   0.217   0.240   0.243   0.264   0.265   0.266   0.265   0.266   0.262   0.257   0.257   0.258   0.258   0.258
   15 087    11     534     243       0       0       3       0       0       0     210    0.00     0.0     0.0    0.00    0.00   0.145   0.216   0.239   0.243   0.264   0.265   0.266   0.265   0.266   0.262   0.257   0.257   0.258   0.258   0.258
   15 088    12     533     242       0       0       3       0       0       0     210    0.00     0.0     0.0    0.00    0.00   0.134   0.215   0.239   0.242   0.264   0.265   0.266   0.265   0.266   0.262   0.257   0.257   0.258   0.258   0.258
   15 089    13     539     248       0       0      10       0       0       0     210    0.00     0.0     0.0    0.00    0.00   0.243   0.223   0.239   0.242   0.264   0.265   0.266   0.265   0.266   0.262   0.257   0.257   0.258   0.258   0.258
   15 090    14     541     249       0       0      13       0       0       0     210    0.00     0.0     0.0    0.00    0.00   0.267   0.236   0.237   0.241   0.263   0.264   0.265   0.264   0.265   0.262   0.257   0.257   0.257   0.257   0.258
   15 091    15     542     250       0       0      16       0       0       0     210    0.00     0.0     0.0    0.00    0.00   0.277   0.248   0.246   0.240   0.262   0.263   0.264   0.264   0.264   0.261   0.256   0.257   0.257   0.257   0.257
   15 092    16     544     253       0       0      20       0       0       0     210    0.00     0.0     0.0    0.00    0.00   0.298   0.259   0.262   0.245   0.261   0.262   0.263   0.263   0.264   0.261   0.256   0.256   0.257   0.257   0.257
   15 093    17     541     250       0       0      20       0       0       0     210    0.00     0.0     0.0    0.00    0.00   0.253   0.247   0.254   0.259   0.265   0.261   0.262   0.262   0.263   0.260   0.255   0.256   0.256   0.256   0.256
   15 094    18     544     252       0       0      24       0       0       0     210    0.00     0.0     0.0    0.00    0.00   0.285   0.256   0.263   0.263   0.266   0.261   0.261   0.261   0.262   0.259   0.255   0.255   0.256   0.256   0.256
   15 095    19     542     250       0       0      24       0       0       0     210    0.00     0.0     0.0    0.00    0.00   0.252   0.248   0.256   0.261   0.266   0.270   0.269   0.261   0.262   0.259   0.254   0.255   0.255   0.256   0.256
   15 096    20     540     249       0       0      24       0       0       0     210    0.00     0.0     0.0    0.00    0.00   0.238   0.246   0.252   0.261   0.266   0.270   0.270   0.260   0.261   0.258   0.254   0.255   0.255   0.255   0.256
   15 097    21     537     245       0       0      24       0       0       0     210    0.00     0.0     0.0    0.00    0.00   0.225   0.241   0.249   0.258   0.264   0.268   0.268   0.259   0.260   0.257   0.253   0.254   0.254   0.255   0.255
   15 098    22     536     244       0       0      24       0       0       0     210    0.00     0.0     0.0    0.00    0.00   0.207   0.240   0.249   0.258   0.264   0.268   0.268   0.259   0.260   0.257   0.253   0.254   0.254   0.255   0.255
   15 099    23     535     243       0       0      24       0       0       0     210    0.00     0.0     0.0    0.00    0.00   0.189   0.238   0.248   0.258   0.264   0.268   0.268   0.259   0.260   0.257   0.253   0.254   0.254   0.255   0.255
   15 100    24     534     242       0       0      24       0       0       0     210    0.00     0.0     0.0    0.00    0.00   0.173   0.237   0.248   0.258   0.264   0.268   0.268   0.259   0.260   0.257   0.253   0.254   0.254   0.255   0.255
   15 101    25     533     241       0       0      24       0       0       0     210    0.00     0.0     0.0    0.00    0.00   0.158   0.235   0.247   0.257   0.263   0.268   0.268   0.259   0.260   0.257   0.253   0.254   0.254   0.255   0.255
   15 102    26     532     240       0       0      24       0       0       0     210    0.00     0.0     0.0    0.00    0.00   0.145   0.233   0.247   0.257   0.263   0.268   0.268   0.258   0.260   0.257   0.253   0.254   0.254   0.255   0.255
   15 103    27     531     240       0       0      24       0       0       0     210    0.00     0.0     0.0    0.00    0.00   0.134   0.231   0.246   0.257   0.263   0.268   0.268   0.258   0.260   0.257   0.253   0.254   0.254   0.255   0.255
   15 104    28     530     239       0       0      24       0       0       0     210    0.00     0.0     0.0    0.00    0.00   0.123   0.229   0.246   0.257   0.263   0.268   0.268   0.258   0.260   0.257   0.253   0.254   0.254   0.255   0.255
   15 105    29     529     238       0       0      24       0       0       0     210    0.00     0.0     0.0    0.00    0.00   0.114   0.227   0.246   0.256   0.263   0.268   0.268   0.258   0.260   0.257   0.253   0.254   0.254   0.255   0.255
   15 106    30     528     237       0       0      24       0       0       0     210    0.00     0.0     0.0    0.00    0.00   0.105   0.222   0.245   0.256   0.263   0.268   0.268   0.258   0.260   0.257   0.253   0.254   0.254   0.255   0.255
   15 107    31     550     259       0       0      48       0       0       0     210    0.00     0.0     0.0    0.21    0.00   0.313   0.297   0.301   0.271   0.269   0.270   0.267   0.258   0.259   0.257   0.253   0.253   0.254   0.254   0.255
   15 108    32     548     256       0       0      48       0       0       0     210    0.00     0.0     0.0    0.00    0.00   0.261   0.267   0.273   0.264   0.267   0.270   0.275   0.275   0.274   0.256   0.252   0.253   0.253   0.254   0.254
   15 109    33     544     252       0       0      48       0       0       0     210    0.00     0.0     0.0    0.00    0.00   0.232   0.250   0.259   0.261   0.265   0.269   0.274   0.274   0.274   0.263   0.251   0.252   0.253   0.253   0.253
   15 110    34     539     248       0       0      48       0       0       0     210    0.00     0.0     0.0    0.00    0.00   0.215   0.242   0.251   0.259   0.264   0.267   0.272   0.273   0.272   0.262   0.250   0.251   0.252   0.252   0.253
   15 111    35     538     246       0       0      48       0       0       0     210    0.00     0.0     0.0    0.00    0.00   0.193   0.239   0.250   0.258   0.264   0.267   0.272   0.273   0.272   0.262   0.250   0.251   0.252   0.252   0.253
   15 112    36     536     245       0       0      48       0       0       0     210    0.00     0.0     0.0    0.00    0.00   0.171   0.235   0.249   0.258   0.264   0.267   0.272   0.273   0.272   0.262   0.250   0.251   0.252   0.252   0.253
   15 113    37     535     243       0       0      48       0       0       0     210    0.00     0.0     0.0    0.00    0.00   0.152   0.230   0.247   0.257   0.264   0.267   0.272   0.273   0.272   0.262   0.250   0.251   0.252   0.252   0.253
   15 114    38     533     242       0       0      48       0       0       0     210    0.00     0.0     0.0    0.00    0.00   0.139   0.228   0.246   0.256   0.264   0.267   0.272   0.273   0.272   0.262   0.250   0.251   0.252   0.252   0.253
   15 115    39     533     241       0       0      49       0       0       0     210    0.00     0.0     0.0    0.00    0.00   0.144   0.221   0.244   0.255   0.263   0.267   0.272   0.273   0.272   0.262   0.250   0.251   0.252   0.252   0.253
   15 116    40     532     241       0       0      50       0       0       0     210    0.00     0.0     0.0    0.00    0.00   0.150   0.217   0.242   0.254   0.263   0.267   0.272   0.272   0.272   0.262   0.250   0.251   0.252   0.252   0.253
   15 117    41     536     244       0       0      55       0       0       0     210    0.00     0.0     0.0    0.00    0.00   0.225   0.215   0.240   0.253   0.262   0.267   0.272   0.272   0.272   0.262   0.250   0.251   0.252   0.252   0.253
   15 118    42     539     248       0       0      61       0       0       0     210    0.00     0.0     0.0    0.00    0.00   0.278   0.233   0.236   0.250   0.261   0.266   0.272   0.272   0.272   0.262   0.250   0.251   0.252   0.252   0.253
   15 119    43     536     245       0       0      61       0       0       0     210    0.00     0.0     0.0    0.00    0.00   0.244   0.240   0.234   0.248   0.259   0.265   0.270   0.271   0.271   0.261   0.249   0.250   0.251   0.252   0.252
   15 120    44     535     243       0       0      62       0       0       0     210    0.00     0.0     0.0    0.00    0.00   0.236   0.241   0.231   0.246   0.258   0.264   0.270   0.270   0.270   0.261   0.249   0.250   0.251   0.251   0.252
   15 121    45     560     269       3       0      92       0       0       0     210    0.00     0.0     0.0    2.95    0.00   0.309   0.317   0.322   0.304   0.283   0.276   0.274   0.270   0.270   0.260   0.249   0.250   0.250   0.251   0.252
   15 122    46     560     268       3       0      93       0       0       0     210    0.00     0.0     0.0    0.00    0.00   0.281   0.290   0.322   0.304   0.296   0.288   0.283   0.277   0.269   0.260   0.248   0.249   0.250   0.251   0.251
   15 123    47     569     278       3       0     104       0       0       0     210    0.00     0.0     0.0    0.08    0.00   0.311   0.310   0.322   0.315   0.308   0.299   0.294   0.285   0.274   0.260   0.248   0.249   0.250   0.251   0.251
   15 124    48     567     276       3       0     104       0       0       0     210    0.00     0.0     0.0    0.00    0.00   0.263   0.274   0.284   0.286   0.286   0.284   0.284   0.280   0.274   0.273   0.270   0.268   0.266   0.251   0.251
   15 125    49     568     276       3       0     107       0       0       0     210    0.00     0.0     0.0    0.00    0.00   0.272   0.265   0.289   0.282   0.286   0.287   0.288   0.284   0.276   0.274   0.269   0.267   0.265   0.250   0.251
   15 126    50     587     296       6       0     132       0       0       0     210    0.00     0.0     0.0    2.43    0.00   0.303   0.314   0.319   0.327   0.314   0.302   0.298   0.290   0.279   0.275   0.272   0.267   0.265   0.250   0.251
   15 127    51     574     283       6      11     132       0       0       0     210    0.00     0.0     0.0    0.00    0.00   0.258   0.276   0.282   0.292   0.289   0.285   0.286   0.283   0.276   0.275   0.271   0.268   0.266   0.263   0.262
   15 128    52     564     272       6      18     132       0       0       0     210    0.00     0.0     0.0    0.00    0.00   0.229   0.254   0.262   0.273   0.275   0.276   0.280   0.278   0.276   0.274   0.271   0.268   0.266   0.263   0.262
   15 129    53     564     272       6      18     136       0       0       0     210    0.00     0.0     0.0    0.00    0.00   0.254   0.250   0.262   0.267   0.272   0.275   0.280   0.279   0.277   0.274   0.270   0.267   0.265   0.262   0.262
   15 130    54     560     268       6      19     136       0       0       0     210    0.00     0.0     0.0    0.00    0.00   0.234   0.244   0.254   0.262   0.267   0.271   0.277   0.277   0.277   0.274   0.270   0.268   0.266   0.263   0.262
   15 131    55     556     264       6      19     136       0       0       0     210    0.00     0.0     0.0    0.00    0.00   0.216   0.236   0.248   0.258   0.264   0.268   0.274   0.276   0.276   0.273   0.270   0.267   0.265   0.262   0.261
   15 132    56     551     260       6      19     136       0       0       0     210    0.00     0.0     0.0    0.00    0.00   0.193   0.226   0.240   0.252   0.259   0.264   0.271   0.276   0.276   0.273   0.269   0.267   0.265   0.262   0.261
   15 133    57     551     259       6      19     142       0       0       0     210    0.00     0.0     0.0    0.00    0.00   0.251   0.231   0.229   0.243   0.251   0.258   0.267   0.274   0.275   0.272   0.269   0.267   0.265   0.262   0.261
   15 134    58     547     256       6      19     142       0       0       0     210    0.00     0.0     0.0    0.00    0.00   0.229   0.228   0.224   0.239   0.248   0.255   0.264   0.273   0.275   0.272   0.269   0.266   0.265   0.262   0.261
   15 135    59     545     254       6      19     142       0       0       0     210    0.00     0.0     0.0    0.00    0.00   0.217   0.225   0.221   0.237   0.246   0.254   0.263   0.273   0.275   0.272   0.269   0.266   0.265   0.262   0.261
   15 136    60     544     252       6      19     142       0       0       0     210    0.00     0.0     0.0    0.00    0.00   0.197   0.222   0.219   0.236   0.245   0.253   0.263   0.272   0.275   0.272   0.269   0.266   0.265   0.262   0.261
   15 137    61     541     250       6      19     143       0       0       0     210    0.00     0.0     0.0    0.00    0.00   0.194   0.215   0.214   0.232   0.242   0.250   0.260   0.271   0.275   0.272   0.269   0.266   0.265   0.262   0.261
   15 138    62     539     247       6      19     143       0       0       0     210    0.00     0.0     0.0    0.00    0.00   0.175   0.212   0.211   0.230   0.240   0.249   0.259   0.270   0.275   0.272   0.269   0.266   0.265   0.262   0.261
   15 139    63     550     259       6      19     159       0       0       0     210    0.00     0.0     0.0    0.01    0.00   0.308   0.264   0.249   0.226   0.234   0.244   0.255   0.267   0.275   0.272   0.269   0.266   0.264   0.262   0.261
   15 140    64     568     276       7      19     179       0       0       0     210    0.00     0.0     0.0    1.47    0.00   0.316   0.318   0.322   0.285   0.257   0.242   0.254   0.266   0.274   0.272   0.268   0.266   0.264   0.262   0.261
   15 141    65     568     277       7      19     180       0       0       0     210    0.00     0.0     0.0    0.00    0.00   0.289   0.292   0.323   0.296   0.279   0.254   0.254   0.266   0.274   0.272   0.268   0.266   0.264   0.261   0.261
   15 142    66     566     275       7      20     180       0       0       0     210    0.00     0.0     0.0    0.00    0.00   0.258   0.267   0.286   0.278   0.272   0.270   0.275   0.275   0.275   0.273   0.270   0.268   0.266   0.263   0.262
   15 143    67     567     276       7      20     183       0       0       0     210    0.00     0.0     0.0    0.00    0.00   0.274   0.263   0.286   0.277   0.276   0.275   0.277   0.277   0.275   0.273   0.270   0.268   0.266   0.263   0.262
   15 144    68     567     276       7      20     184       0       0       0     210    0.00     0.0     0.0    0.00    0.00   0.263   0.259   0.282   0.276   0.278   0.278   0.280   0.278   0.276   0.273   0.270   0.268   0.266   0.263   0.262
   15 145    69     563     271       7      23     184       0       0       0     210    0.00     0.0     0.0    0.00    0.00   0.246   0.251   0.265   0.268   0.272   0.274   0.277   0.277   0.275   0.273   0.270   0.268   0.266   0.263   0.262
   15 146    70     560     269       7      25     184       0       0       0     210    0.00     0.0     0.0    0.00    0.00   0.236   0.246   0.256   0.263   0.268   0.272   0.276   0.277   0.275   0.273   0.270   0.268   0.266   0.263   0.262
   15 147    71     559     268       7      25     184       0       0       0     210    0.00     0.0     0.0    0.00    0.00   0.233   0.244   0.253   0.262   0.267   0.272   0.275   0.276   0.275   0.273   0.270   0.268   0.266   0.263   0.262
   15 148    72     558     266       7      25     184       0       0       0     210    0.00     0.0     0.0    0.00    0.00   0.228   0.242   0.251   0.261   0.266   0.270   0.274   0.275   0.275   0.273   0.270   0.268   0.266   0.263   0.262
   15 149    73     555     264       7      25     184       0       0       0     210    0.00     0.0     0.0    0.00    0.00   0.213   0.238   0.247   0.258   0.263   0.268   0.273   0.274   0.274   0.273   0.270   0.268   0.266   0.263   0.262
   15 150    74     553     262       7      25     184       0       0       0     210    0.00     0.0     0.0    0.00    0.00   0.201   0.234   0.244   0.255   0.261   0.266   0.271   0.273   0.274   0.273   0.270   0.268   0.266   0.263   0.262
   15 151    75     552     261       7      25     184       0       0       0     210    0.00     0.0     0.0    0.00    0.00   0.191   0.232   0.243   0.254   0.260   0.266   0.271   0.272   0.274   0.273   0.270   0.268   0.266   0.263   0.262
   15 152    76     550     259       7      25     184       0       0       0     210    0.00     0.0     0.0    0.00    0.00   0.180   0.229   0.240   0.252   0.258   0.264   0.269   0.271   0.274   0.273   0.270   0.268   0.266   0.263   0.262
   15 153    77     548     256       7      25     184       0       0       0     210    0.00     0.0     0.0    0.00    0.00   0.168   0.225   0.236   0.249   0.256   0.262   0.268   0.270   0.273   0.273   0.270   0.268   0.266   0.263   0.262
   15 154    78     545     254       7      25     184       0       0       0     210    0.00     0.0     0.0    0.00    0.00   0.155   0.220   0.232   0.246   0.253   0.259   0.265   0.268   0.273   0.273   0.270   0.268   0.266   0.263   0.262
   15 155    79     540     249       7      25     184       0       0       0     210    0.00     0.0     0.0    0.00    0.00   0.140   0.211   0.223   0.239   0.247   0.255   0.261   0.265   0.272   0.273   0.270   0.268   0.266   0.263   0.262
   15 156    80     536     245       7      25     184       0       0       0     210    0.00     0.0     0.0    0.00    0.00   0.127   0.204   0.215   0.233   0.241   0.250   0.257   0.262   0.271   0.273   0.270   0.268   0.266   0.263   0.262
   15 157    81     535     243       7      25     187       0       0       0     210    0.00     0.0     0.0    0.00    0.00   0.176   0.197   0.207   0.227   0.236   0.245   0.253   0.259   0.269   0.272   0.270   0.268   0.266   0.263   0.262
   15 158    82     530     239       7      25     187       0       0       0     210    0.00     0.0     0.0    0.00    0.00   0.159   0.190   0.199   0.220   0.230   0.240   0.249   0.256   0.268   0.272   0.270   0.268   0.266   0.263   0.262
   15 159    83     543     251       7      25     203       0       0       0     210    0.00     0.0     0.0    0.00    0.00   0.315   0.253   0.216   0.215   0.226   0.236   0.246   0.253   0.267   0.272   0.270   0.268   0.266   0.263   0.262
   15 160    84     542     250       7      25     203       0       0       0     210    0.00     0.0     0.0    0.00    0.00   0.271   0.248   0.250   0.219   0.224   0.235   0.245   0.252   0.267   0.272   0.270   0.268   0.266   0.263   0.262
   15 161    85     541     250       7      25     203       0       0       0     210    0.00     0.0     0.0    0.00    0.00   0.252   0.247   0.252   0.227   0.224   0.235   0.245   0.252   0.267   0.272   0.270   0.268   0.266   0.263   0.262
   15 162    86     540     248       7      25     203       0       0       0     210    0.00     0.0     0.0    0.00    0.00   0.239   0.244   0.250   0.229   0.223   0.233   0.244   0.251   0.266   0.272   0.269   0.268   0.266   0.263   0.262
   15 163    87     537     246       7      25     203       0       0       0     210    0.00     0.0     0.0    0.00    0.00   0.228   0.239   0.245   0.226   0.220   0.231   0.241   0.249   0.266   0.271   0.269   0.267   0.266   0.263   0.262
   15 164    88     538     247       7      25     211       0       0       0     210    0.00     0.0     0.0    0.00    0.00   0.295   0.248   0.251   0.222   0.212   0.224   0.236   0.245   0.264   0.270   0.269   0.267   0.265   0.262   0.262
   15 165    89     552     261       8      25     231       0       0       0     210    0.00     0.0     0.0    1.22    0.00   0.305   0.313   0.317   0.269   0.220   0.220   0.232   0.242   0.262   0.270   0.269   0.267   0.265   0.262   0.261
   15 166    90     567     276      11      25     252       0       0       0     210    0.00     0.0     0.0    2.16    0.00   0.308   0.314   0.318   0.326   0.294   0.247   0.230   0.240   0.261   0.269   0.269   0.267   0.265   0.262   0.261
   15 167    91     567     275      11      25     252       0       0       0     210    0.00     0.0     0.0    0.00    0.00   0.269   0.279   0.284   0.293   0.280   0.270   0.275   0.276   0.265   0.269   0.269   0.267   0.265   0.262   0.261
   15 168    92     562     271      11      26     252       0       0       0     210    0.00     0.0     0.0    0.00    0.00   0.244   0.258   0.264   0.275   0.271   0.269   0.274   0.274   0.274   0.272   0.270   0.268   0.266   0.263   0.262
   15 169    93     571     279      11      26     263       0       0       0     210    0.00     0.0     0.0    0.00    0.00   0.312   0.283   0.295   0.277   0.275   0.273   0.276   0.273   0.273   0.272   0.270   0.268   0.266   0.263   0.262
   15 170    94     564     273      11      31     263       0       0       0     210    0.00     0.0     0.0    0.00    0.00   0.269   0.262   0.272   0.268   0.270   0.272   0.275   0.275   0.275   0.273   0.270   0.268   0.266   0.263   0.262
   15 171    95     561     270      11      33     263       0       0       0     210    0.00     0.0     0.0    0.00    0.00   0.248   0.252   0.260   0.264   0.268   0.270   0.275   0.275   0.275   0.273   0.270   0.268   0.266   0.263   0.262
   15 172    96     559     268      11      33     263       0       0       0     210    0.00     0.0     0.0    0.00    0.00   0.238   0.247   0.254   0.262   0.267   0.270   0.275   0.275   0.275   0.273   0.270   0.268   0.266   0.263   0.262
   15 173    97     567     276      11      33     273       0       0       0     210    0.00     0.0     0.0    0.00    0.00   0.315   0.272   0.280   0.267   0.269   0.272   0.274   0.274   0.274   0.272   0.270   0.268   0.266   0.263   0.262
   15 174    98     567     275      11      33     275       0       0       0     210    0.00     0.0     0.0    0.00    0.00   0.293   0.269   0.289   0.272   0.272   0.273   0.276   0.272   0.273   0.271   0.270   0.268   0.266   0.263   0.262
   15 175    99     562     270      11      36     275       0       0       0     210    0.00     0.0     0.0    0.00    0.00   0.257   0.254   0.267   0.265   0.267   0.271   0.275   0.275   0.274   0.272   0.270   0.268   0.266   0.263   0.262
   15 176   100     558     266      11      37     275       0       0       0     210    0.00     0.0     0.0    0.00    0.00   0.236   0.244   0.254   0.261   0.264   0.268   0.273   0.274   0.274   0.272   0.270   0.268   0.266   0.263   0.262
   15 177   101     553     261      11      37     275       0       0       0     210    0.00     0.0     0.0    0.00    0.00   0.221   0.237   0.247   0.255   0.259   0.264   0.270   0.271   0.272   0.270   0.269   0.268   0.266   0.263   0.262
   15 178   102     547     256      11      37     275       0       0       0     210    0.00     0.0     0.0    0.00    0.00   0.200   0.228   0.239   0.248   0.253   0.258   0.265   0.267   0.270   0.269   0.269   0.268   0.266   0.263   0.262
   15 179   103     544     253      11      37     275       0       0       0     210    0.00     0.0     0.0    0.00    0.00   0.186   0.224   0.235   0.245   0.250   0.256   0.263   0.265   0.269   0.268   0.269   0.268   0.266   0.263   0.262
   15 180   104     541     249      11      37     275       0       0       0     210    0.00     0.0     0.0    0.00    0.00   0.171   0.219   0.230   0.241   0.246   0.253   0.260   0.263   0.268   0.267   0.268   0.268   0.266   0.263   0.262
   15 181   105     535     244      11      37     275       0       0       0     210    0.00     0.0     0.0    0.00    0.00   0.152   0.212   0.221   0.234   0.241   0.248   0.256   0.259   0.266   0.265   0.268   0.268   0.266   0.263   0.262
   15 182   106     527     236      11      37     275       0       0       0     210    0.00     0.0     0.0    0.00    0.00   0.132   0.201   0.209   0.224   0.231   0.240   0.249   0.254   0.263   0.262   0.267   0.268   0.266   0.263   0.262
   15 183   107     520     228      11      37     275       0       0       0     210    0.00     0.0     0.0    0.00    0.00   0.119   0.192   0.197   0.215   0.223   0.232   0.243   0.248   0.260   0.259   0.267   0.268   0.266   0.263   0.262
   15 184   108     512     221      11      37     275       0       0       0     210    0.00     0.0     0.0    0.00    0.00   0.109   0.183   0.184   0.206   0.214   0.224   0.236   0.242   0.257   0.256   0.266   0.268   0.266   0.263   0.262
   15 185   109     505     214      11      37     275       0       0       0     210    0.00     0.0     0.0    0.00    0.00   0.102   0.175   0.171   0.198   0.205   0.215   0.228   0.236   0.253   0.253   0.265   0.268   0.266   0.263   0.262
   15 186   110     498     207      11      37     275       0       0       0     210    0.00     0.0     0.0    0.00    0.00   0.095   0.168   0.159   0.190   0.197   0.206   0.220   0.229   0.249   0.250   0.264   0.268   0.266   0.263   0.262
   15 187   111     491     200      11      37     275       0       0       0     210    0.00     0.0     0.0    0.00    0.00   0.090   0.160   0.149   0.182   0.189   0.198   0.212   0.222   0.245   0.246   0.264   0.268   0.266   0.263   0.262
   15 188   112     490     199      11      37     279       0       0       0     210    0.00     0.0     0.0    0.00    0.00   0.161   0.156   0.144   0.178   0.184   0.193   0.206   0.217   0.242   0.243   0.263   0.268   0.266   0.263   0.262
   15 189   113     489     198      11      37     285       0       0       0     210    0.00     0.0     0.0    0.00    0.00   0.239   0.161   0.139   0.172   0.179   0.187   0.199   0.210   0.239   0.240   0.262   0.267   0.266   0.263   0.262
   15 190   114     487     195      11      37     285       0       0       0     210    0.00     0.0     0.0    0.00    0.00   0.226   0.160   0.138   0.170   0.177   0.185   0.197   0.208   0.237   0.239   0.262   0.267   0.266   0.263   0.262
   15 191   115     484     192      11      37     285       0       0       0     210    0.00     0.0     0.0    0.00    0.00   0.201   0.157   0.136   0.169   0.175   0.183   0.194   0.206   0.236   0.237   0.262   0.267   0.266   0.263   0.262
   15 192   116     478     186      11      37     285       0       0       0     210    0.00     0.0     0.0    0.00    0.00   0.168   0.153   0.133   0.165   0.171   0.179   0.190   0.201   0.233   0.235   0.261   0.267   0.266   0.263   0.262
   15 193   117     470     179      11      37     285       0       0       0     210    0.00     0.0     0.0    0.00    0.00   0.136   0.146   0.130   0.160   0.166   0.173   0.183   0.192   0.228   0.230   0.260   0.267   0.266   0.263   0.262
   15 194   118     466     175      11      37     286       0       0       0     210    0.00     0.0     0.0    0.00    0.00   0.143   0.142   0.128   0.156   0.162   0.169   0.178   0.186   0.224   0.226   0.259   0.266   0.266   0.263   0.262
   15 195   119     464     173      11      37     286       0       0       0     210    0.00     0.0     0.0    0.00    0.00   0.132   0.141   0.127   0.155   0.161   0.168   0.177   0.185   0.223   0.225   0.259   0.266   0.266   0.263   0.262
   15 196   120     461     170      11      37     286       0       0       0     210    0.00     0.0     0.0    0.00    0.00   0.119   0.138   0.126   0.153   0.159   0.165   0.174   0.181   0.220   0.223   0.258   0.266   0.266   0.263   0.262
   15 197   121     457     165      11      37     286       0       0       0     210    0.00     0.0     0.0    0.00    0.00   0.108   0.135   0.125   0.150   0.156   0.162   0.171   0.177   0.216   0.219   0.257   0.266   0.266   0.263   0.262
   15 198   122     449     158      11      37     286       0       0       0     210    0.00     0.0     0.0    0.00    0.00   0.101   0.130   0.124   0.146   0.152   0.157   0.164   0.169   0.209   0.213   0.256   0.265   0.266   0.263   0.262
   15 199   123     443     152      11      37     286       0       0       0     210    0.00     0.0     0.0    0.00    0.00   0.095   0.126   0.123   0.142   0.148   0.153   0.160   0.163   0.201   0.205   0.254   0.264   0.266   0.263   0.262
   15 200   124     439     147      11      37     286       0       0       0     210    0.00     0.0     0.0    0.00    0.00   0.090   0.124   0.123   0.140   0.146   0.151   0.157   0.160   0.195   0.200   0.253   0.263   0.266   0.263   0.262
   15 201   125     435     144      11      37     286       0       0       0     210    0.00     0.0     0.0    0.00    0.00   0.084   0.122   0.123   0.139   0.144   0.149   0.155   0.157   0.190   0.195   0.252   0.263   0.266   0.263   0.262
   15 202   126     432     140      11      37     286       0       0       0     210    0.00     0.0     0.0    0.00    0.00   0.080   0.121   0.123   0.137   0.143   0.147   0.153   0.155   0.186   0.190   0.250   0.263   0.266   0.263   0.262
   15 203   127     426     134      11      37     286       0       0       0     210    0.00     0.0     0.0    0.00    0.00   0.075   0.119   0.123   0.135   0.141   0.145   0.151   0.152   0.177   0.180   0.248   0.263   0.266   0.263   0.262
   15 204   128     421     130      11      37     287       0       0       0     210    0.00     0.0     0.0    0.00    0.00   0.091   0.118   0.122   0.134   0.139   0.143   0.148   0.149   0.168   0.170   0.245   0.263   0.266   0.263   0.262
   15 205   129     420     128      11      37     287       0       0       0     210    0.00     0.0     0.0    0.00    0.00   0.086   0.118   0.122   0.134   0.139   0.143   0.148   0.149   0.166   0.168   0.244   0.263   0.266   0.263   0.262
   15 206   130     416     124      11      37     287       0       0       0     210    0.00     0.0     0.0    0.00    0.00   0.081   0.117   0.122   0.133   0.138   0.142   0.147   0.147   0.159   0.159   0.244   0.263   0.266   0.263   0.262
   15 207   131     413     121      11      37     287       0       0       0     210    0.00     0.0     0.0    0.00    0.00   0.076   0.117   0.122   0.133   0.138   0.142   0.147   0.147   0.153   0.152   0.244   0.263   0.266   0.263   0.262
   15 208   132     415     124      11      37     290       0       0       0     210    0.00     0.0     0.0    0.00    0.00   0.130   0.116   0.122   0.133   0.138   0.142   0.147   0.147   0.153   0.152   0.243   0.263   0.266   0.263   0.262
   15 209   133     414     123      11      37     291       0       0       0     210    0.00     0.0     0.0    0.00    0.00   0.118   0.116   0.122   0.133   0.138   0.142   0.147   0.147   0.152   0.152   0.243   0.263   0.266   0.263   0.262
   15 210   134     414     123      11      37     292       0       0       0     210    0.00     0.0     0.0    0.00    0.00   0.119   0.115   0.121   0.133   0.138   0.142   0.147   0.147   0.152   0.152   0.243   0.263   0.266   0.263   0.262
   15 211   135     413     122      11      37     292       0       0       0     210    0.00     0.0     0.0    0.00    0.00   0.100   0.115   0.121   0.133   0.138   0.142   0.147   0.147   0.152   0.152   0.243   0.263   0.266   0.263   0.262
   15 212   136     413     122      11      37     292       0       0       0     210    0.00     0.0     0.0    0.00    0.00   0.094   0.114   0.121   0.132   0.138   0.142   0.147   0.147   0.152   0.152   0.243   0.263   0.266   0.263   0.262
   15 213   137     413     121      11      37     292       0       0       0     210    0.00     0.0     0.0    0.00    0.00   0.089   0.114   0.121   0.132   0.138   0.142   0.147   0.147   0.152   0.152   0.243   0.263   0.265   0.263   0.262
   15 214   138     412     121      11      37     292       0       0       0     210    0.00     0.0     0.0    0.00    0.00   0.084   0.113   0.121   0.132   0.138   0.142   0.147   0.147   0.152   0.152   0.243   0.263   0.265   0.263   0.262
   15 215   139     412     121      11      37     292       0       0       0     210    0.00     0.0     0.0    0.00    0.00   0.079   0.113   0.121   0.132   0.138   0.142   0.147   0.147   0.152   0.152   0.243   0.263   0.265   0.263   0.262
   15 216   140     412     120      11      37     292       0       0       0     210    0.00     0.0     0.0    0.00    0.00   0.075   0.113   0.120   0.132   0.138   0.142   0.147   0.147   0.152   0.152   0.243   0.263   0.265   0.263   0.262
   15 217   141     411     120      11      37     292       0       0       0     210    0.00     0.0     0.0    0.00    0.00   0.071   0.112   0.120   0.132   0.137   0.142   0.147   0.147   0.152   0.152   0.243   0.263   0.265   0.263   0.262
   15 218   142     411     120      11      37     292       0       0       0     210    0.00     0.0     0.0    0.00    0.00   0.068   0.112   0.120   0.132   0.137   0.142   0.147   0.147   0.152   0.152   0.243   0.263   0.265   0.263   0.262
   15 219   143     411     119      11      37     292       0       0       0     210    0.00     0.0     0.0    0.00    0.00   0.064   0.111   0.120   0.132   0.137   0.142   0.147   0.147   0.152   0.152   0.243   0.263   0.265   0.263   0.262
   15 220   144     412     120      11      37     293       0       0       0     210    0.00     0.0     0.0    0.00    0.00   0.081   0.111   0.120   0.132   0.137   0.142   0.147   0.147   0.152   0.152   0.243   0.263   0.265   0.263   0.262
   15 221   145     411     120      11      37     293       0       0       0     210    0.00     0.0     0.0    0.00    0.00   0.076   0.110   0.120   0.132   0.137   0.142   0.147   0.147   0.152   0.152   0.243   0.263   0.265   0.263   0.262
   15 222   146     411     120      11      37     293       0       0       0     210    0.00     0.0     0.0    0.00    0.00   0.072   0.110   0.119   0.132   0.137   0.142   0.147   0.147   0.152   0.152   0.243   0.263   0.265   0.263   0.262
   15 223   147     411     119      11      37     293       0       0       0     210    0.00     0.0     0.0    0.00    0.00   0.069   0.109   0.119   0.132   0.137   0.142   0.147   0.147   0.152   0.152   0.243   0.263   0.265   0.263   0.262
   15 224   148     410     119      11      37     293       0       0       0     210    0.00     0.0     0.0    0.00    0.00   0.066   0.109   0.119   0.131   0.137   0.141   0.147   0.147   0.152   0.152   0.243   0.263   0.265   0.263   0.262
   15 225   149     410     119      11      37     293       0       0       0     210    0.00     0.0     0.0    0.00    0.00   0.063   0.109   0.119   0.131   0.137   0.141   0.147   0.147   0.152   0.152   0.243   0.263   0.265   0.263   0.262
   15 226   150     414     122      11      37     297       0       0       0     210    0.00     0.0     0.0    0.00    0.00   0.136   0.108   0.119   0.131   0.137   0.141   0.147   0.147   0.152   0.152   0.243   0.263   0.265   0.263   0.262
   15 227   151     413     122      11      37     297       0       0       0     210    0.00     0.0     0.0    0.00    0.00   0.127   0.108   0.119   0.131   0.137   0.141   0.147   0.147   0.152   0.152   0.243   0.263   0.265   0.263   0.262
[...]
   15 158    82     542     250       8      37     187       0       0       0     210    0.00     0.0     0.0    0.00    0.00   0.143   0.208   0.228   0.243   0.252   0.260   0.267   0.268   0.271   0.273   0.269   0.267   0.265   0.262   0.261
   15 159    83     556     265       8      37     203       0       0       0     210    0.00     0.0     0.0    0.00    0.00   0.308   0.260   0.255   0.244   0.251   0.259   0.266   0.267   0.271   0.273   0.269   0.267   0.265   0.262   0.261
   15 160    84     555     264       8      37     203       0       0       0     210    0.00     0.0     0.0    0.00    0.00   0.269   0.252   0.254   0.261   0.257   0.258   0.266   0.267   0.270   0.273   0.268   0.267   0.265   0.262   0.261
   15 161    85     554     263       8      37     203       0       0       0     210    0.00     0.0     0.0    0.00    0.00   0.250   0.248   0.253   0.261   0.267   0.259   0.266   0.266   0.270   0.272   0.268   0.266   0.264   0.262   0.261
   15 162    86     553     261       8      37     203       0       0       0     210    0.00     0.0     0.0    0.00    0.00   0.236   0.245   0.251   0.261   0.266   0.260   0.265   0.266   0.270   0.272   0.268   0.266   0.264   0.261   0.260
   15 163    87     550     258       8      37     203       0       0       0     210    0.00     0.0     0.0    0.00    0.00   0.224   0.241   0.248   0.258   0.263   0.258   0.263   0.264   0.268   0.271   0.267   0.266   0.264   0.261   0.260
   15 164    88     554     262       8      37     211       0       0       0     210    0.00     0.0     0.0    0.00    0.00   0.301   0.254   0.259   0.260   0.260   0.255   0.261   0.262   0.267   0.270   0.267   0.265   0.263   0.260   0.260
   15 165    89     569     277       9      37     231       0       0       0     210    0.00     0.0     0.0    1.32    0.00   0.306   0.315   0.320   0.296   0.279   0.268   0.259   0.261   0.266   0.269   0.266   0.265   0.263   0.260   0.259
   15 166    90     586     294      11      37     252       0       0       0     210    0.00     0.0     0.0    2.19    0.00   0.312   0.317   0.321   0.328   0.332   0.310   0.287   0.272   0.265   0.269   0.266   0.264   0.263   0.260   0.259
   15 167    91     574     283      11      46     252       0       0       0     210    0.00     0.0     0.0    0.00    0.00   0.267   0.279   0.285   0.294   0.298   0.290   0.281   0.275   0.274   0.273   0.270   0.268   0.266   0.263   0.262
   15 168    92     564     273      11      53     252       0       0       0     210    0.00     0.0     0.0    0.00    0.00   0.241   0.258   0.265   0.275   0.280   0.279   0.277   0.275   0.274   0.272   0.270   0.268   0.266   0.263   0.262
   15 169    93     574     282      11      53     263       0       0       0     210    0.00     0.0     0.0    0.00    0.00   0.314   0.285   0.298   0.279   0.282   0.282   0.281   0.278   0.275   0.272   0.269   0.267   0.265   0.263   0.262
   15 170    94     565     274      11      60     263       0       0       0     210    0.00     0.0     0.0    0.00    0.00   0.268   0.263   0.273   0.269   0.273   0.275   0.278   0.277   0.274   0.273   0.270   0.268   0.266   0.263   0.262
   15 171    95     561     270      11      63     263       0       0       0     210    0.00     0.0     0.0    0.00    0.00   0.246   0.252   0.261   0.264   0.269   0.272   0.277   0.276   0.274   0.273   0.270   0.268   0.266   0.263   0.262
   15 172    96     559     268      11      63     263       0       0       0     210    0.00     0.0     0.0    0.00    0.00   0.235   0.247   0.254   0.263   0.268   0.271   0.276   0.275   0.274   0.273   0.270   0.268   0.266   0.263   0.262
   15 173    97     567     276      11      63     273       0       0       0     210    0.00     0.0     0.0    0.00    0.00   0.313   0.272   0.280   0.268   0.270   0.272   0.277   0.274   0.274   0.272   0.269   0.267   0.265   0.263   0.262
   15 174    98     567     275      11      63     275       0       0       0     210    0.00     0.0     0.0    0.00    0.00   0.289   0.268   0.289   0.273   0.273   0.274   0.277   0.276   0.273   0.271   0.269   0.267   0.265   0.262   0.261
   15 175    99     561     270      11      65     275       0       0       0     210    0.00     0.0     0.0    0.00    0.00   0.252   0.253   0.267   0.265   0.268   0.272   0.276   0.275   0.274   0.272   0.269   0.268   0.266   0.263   0.262
   15 176   100     558     266      11      66     275       0       0       0     210    0.00     0.0     0.0    0.00    0.00   0.231   0.244   0.255   0.262   0.265   0.270   0.274   0.274   0.274   0.272   0.269   0.268   0.266   0.263   0.262
   15 177   101     553     262      11      66     275       0       0       0     210    0.00     0.0     0.0    0.00    0.00   0.216   0.238   0.249   0.258   0.262   0.267   0.272   0.272   0.272   0.271   0.269   0.267   0.265   0.262   0.261
   15 178   102     550     258      11      66     275       0       0       0     210    0.00     0.0     0.0    0.00    0.00   0.190   0.233   0.244   0.254   0.259   0.264   0.270   0.270   0.271   0.270   0.268   0.267   0.265   0.262   0.261
   15 179   103     548     256      11      66     275       0       0       0     210    0.00     0.0     0.0    0.00    0.00   0.172   0.230   0.242   0.253   0.258   0.263   0.269   0.270   0.271   0.269   0.268   0.267   0.265   0.262   0.261
   15 180   104     545     254      11      66     275       0       0       0     210    0.00     0.0     0.0    0.00    0.00   0.154   0.226   0.240   0.251   0.256   0.262   0.268   0.268   0.270   0.269   0.268   0.267   0.265   0.262   0.261
   15 181   105     542     250      11      66     275       0       0       0     210    0.00     0.0     0.0    0.00    0.00   0.137   0.221   0.235   0.247   0.253   0.259   0.265   0.267   0.269   0.268   0.268   0.267   0.265   0.262   0.261
   15 182   106     537     245      11      66     275       0       0       0     210    0.00     0.0     0.0    0.00    0.00   0.121   0.213   0.228   0.242   0.248   0.255   0.262   0.264   0.267   0.266   0.267   0.267   0.265   0.262   0.261
   15 183   107     533     241      11      66     275       0       0       0     210    0.00     0.0     0.0    0.00    0.00   0.110   0.205   0.222   0.237   0.243   0.252   0.259   0.261   0.265   0.265   0.266   0.267   0.265   0.262   0.261
   15 184   108     528     237      11      66     275       0       0       0     210    0.00     0.0     0.0    0.00    0.00   0.103   0.197   0.215   0.231   0.238   0.248   0.256   0.258   0.263   0.263   0.265   0.267   0.265   0.262   0.261
   15 185   109     524     232      11      66     275       0       0       0     210    0.00     0.0     0.0    0.00    0.00   0.096   0.189   0.209   0.226   0.234   0.244   0.253   0.255   0.261   0.262   0.265   0.267   0.265   0.262   0.261
   15 186   110     520     228      11      66     275       0       0       0     210    0.00     0.0     0.0    0.00    0.00   0.091   0.182   0.202   0.220   0.229   0.240   0.249   0.252   0.259   0.260   0.264   0.267   0.265   0.262   0.261
   15 187   111     515     224      11      66     275       0       0       0     210    0.00     0.0     0.0    0.00    0.00   0.085   0.174   0.196   0.215   0.224   0.236   0.246   0.249   0.258   0.258   0.263   0.267   0.265   0.262   0.261
   15 188   112     516     225      11      66     279       0       0       0     210    0.00     0.0     0.0    0.00    0.00   0.157   0.169   0.191   0.211   0.221   0.233   0.244   0.247   0.256   0.257   0.263   0.267   0.265   0.262   0.261
   15 189   113     518     227      11      66     285       0       0       0     210    0.00     0.0     0.0    0.00    0.00   0.234   0.173   0.186   0.207   0.217   0.230   0.241   0.245   0.255   0.256   0.262   0.267   0.265   0.262   0.261
   15 190   114     516     224      11      66     285       0       0       0     210    0.00     0.0     0.0    0.00    0.00   0.213   0.171   0.185   0.206   0.216   0.229   0.240   0.244   0.254   0.256   0.262   0.267   0.265   0.262   0.261
   15 191   115     514     222      11      66     285       0       0       0     210    0.00     0.0     0.0    0.00    0.00   0.192   0.168   0.183   0.204   0.214   0.228   0.240   0.243   0.254   0.255   0.262   0.267   0.265   0.262   0.261
   15 192   116     510     219      11      66     285       0       0       0     210    0.00     0.0     0.0    0.00    0.00   0.170   0.164   0.179   0.201   0.212   0.226   0.238   0.242   0.253   0.254   0.261   0.267   0.265   0.262   0.261
   15 193   117     506     214      11      66     285       0       0       0     210    0.00     0.0     0.0    0.00    0.00   0.146   0.159   0.173   0.196   0.208   0.222   0.235   0.239   0.251   0.253   0.261   0.266   0.265   0.262   0.261
   15 194   118     504     212      11      66     286       0       0       0     210    0.00     0.0     0.0    0.00    0.00   0.149   0.155   0.169   0.193   0.205   0.220   0.233   0.237   0.250   0.252   0.260   0.266   0.265   0.262   0.261
   15 195   119     502     211      11      66     286       0       0       0     210    0.00     0.0     0.0    0.00    0.00   0.137   0.154   0.168   0.192   0.204   0.219   0.232   0.237   0.249   0.251   0.260   0.266   0.265   0.262   0.261
   15 196   120     500     209      11      66     286       0       0       0     210    0.00     0.0     0.0    0.00    0.00   0.125   0.152   0.166   0.190   0.202   0.218   0.231   0.236   0.249   0.251   0.260   0.266   0.265   0.262   0.261
   15 197   121     498     206      11      66     286       0       0       0     210    0.00     0.0     0.0    0.00    0.00   0.115   0.149   0.162   0.187   0.199   0.216   0.229   0.234   0.248   0.250   0.260   0.266   0.265   0.262   0.261
   15 198   122     494     202      11      66     286       0       0       0     210    0.00     0.0     0.0    0.00    0.00   0.106   0.145   0.157   0.182   0.195   0.212   0.226   0.232   0.246   0.248   0.259   0.266   0.265   0.262   0.261
   15 199   123     490     199      11      66     286       0       0       0     210    0.00     0.0     0.0    0.00    0.00   0.099   0.142   0.151   0.178   0.191   0.209   0.223   0.229   0.244   0.247   0.258   0.265   0.265   0.262   0.261
   15 200   124     488     196      11      66     286       0       0       0     210    0.00     0.0     0.0    0.00    0.00   0.093   0.139   0.148   0.174   0.188   0.206   0.221   0.227   0.243   0.246   0.258   0.265   0.265   0.262   0.261
   15 201   125     486     194      11      66     286       0       0       0     210    0.00     0.0     0.0    0.00    0.00   0.088   0.138   0.145   0.172   0.186   0.205   0.220   0.226   0.242   0.245   0.257   0.265   0.265   0.262   0.261
   15 202   126     484     192      11      66     286       0       0       0     210    0.00     0.0     0.0    0.00    0.00   0.083   0.136   0.142   0.169   0.184   0.203   0.218   0.224   0.241   0.244   0.257   0.265   0.265   0.262   0.261
   15 203   127     481     189      11      66     286       0       0       0     210    0.00     0.0     0.0    0.00    0.00   0.078   0.133   0.138   0.165   0.180   0.199   0.216   0.222   0.239   0.243   0.256   0.265   0.265   0.262   0.261
   15 204   128     478     187      11      66     287       0       0       0     210    0.00     0.0     0.0    0.00    0.00   0.093   0.131   0.134   0.161   0.175   0.196   0.212   0.219   0.237   0.241   0.256   0.264   0.265   0.262   0.261
   15 205   129     477     186      11      66     287       0       0       0     210    0.00     0.0     0.0    0.00    0.00   0.088   0.130   0.133   0.161   0.174   0.195   0.212   0.219   0.237   0.241   0.256   0.264   0.265   0.262   0.261
   15 206   130     475     183      11      66     287       0       0       0     210    0.00     0.0     0.0    0.00    0.00   0.083   0.129   0.131   0.158   0.171   0.192   0.210   0.217   0.236   0.240   0.255   0.264   0.265   0.262   0.261
   15 207   131     473     181      11      66     287       0       0       0     210    0.00     0.0     0.0    0.00    0.00   0.078   0.127   0.130   0.156   0.168   0.190   0.208   0.215   0.235   0.239   0.255   0.264   0.265   0.262   0.261
   15 208   132     474     182      11      66     290       0       0       0     210    0.00     0.0     0.0    0.00    0.00   0.132   0.126   0.129   0.154   0.166   0.188   0.206   0.213   0.233   0.238   0.254   0.263   0.265   0.262   0.261
   15 209   133     473     181      11      66     291       0       0       0     210    0.00     0.0     0.0    0.00    0.00   0.140   0.125   0.128   0.153   0.164   0.186   0.204   0.212   0.233   0.237   0.254   0.263   0.265   0.262   0.261
   15 210   134     472     181      11      66     292       0       0       0     210    0.00     0.0     0.0    0.00    0.00   0.147   0.124   0.127   0.152   0.163   0.185   0.203   0.211   0.232   0.236   0.254   0.263   0.265   0.262   0.261
   15 211   135     471     180      11      66     292       0       0       0     210    0.00     0.0     0.0    0.00    0.00   0.134   0.124   0.127   0.151   0.163   0.184   0.203   0.210   0.232   0.236   0.253   0.263   0.265   0.262   0.261
   15 212   136     469     178      11      66     292       0       0       0     210    0.00     0.0     0.0    0.00    0.00   0.122   0.123   0.126   0.150   0.161   0.183   0.202   0.209   0.231   0.235   0.253   0.263   0.265   0.262   0.261
   15 213   137     467     176      11      66     292       0       0       0     210    0.00     0.0     0.0    0.00    0.00   0.112   0.122   0.126   0.149   0.160   0.181   0.200   0.208   0.230   0.235   0.253   0.263   0.265   0.262   0.261
   15 214   138     467     175      11      66     292       0       0       0     210    0.00     0.0     0.0    0.00    0.00   0.105   0.121   0.125   0.149   0.159   0.180   0.200   0.208   0.230   0.234   0.253   0.263   0.265   0.262   0.261
   15 215   139     465     174      11      66     292       0       0       0     210    0.00     0.0     0.0    0.00    0.00   0.099   0.121   0.125   0.148   0.158   0.179   0.198   0.206   0.229   0.234   0.252   0.263   0.265   0.262   0.261
   15 216   140     463     172      11      66     292       0       0       0     210    0.00     0.0     0.0    0.00    0.00   0.093   0.120   0.124   0.146   0.156   0.176   0.196   0.204   0.228   0.233   0.252   0.262   0.265   0.262   0.261
   15 217   141     461     170      11      66     292       0       0       0     210    0.00     0.0     0.0    0.00    0.00   0.087   0.119   0.124   0.145   0.154   0.174   0.194   0.203   0.226   0.232   0.251   0.262   0.265   0.262   0.261
   15 218   142     460     168      11      66     292       0       0       0     210    0.00     0.0     0.0    0.00    0.00   0.082   0.119   0.124   0.144   0.153   0.172   0.193   0.201   0.225   0.231   0.251   0.262   0.265   0.262   0.261
   15 219   143     458     167      11      66     292       0       0       0     210    0.00     0.0     0.0    0.00    0.00   0.078   0.118   0.123   0.143   0.152   0.170   0.191   0.200   0.224   0.230   0.251   0.262   0.265   0.262   0.261
   15 220   144     458     167      11      66     293       0       0       0     210    0.00     0.0     0.0    0.00    0.00   0.093   0.118   0.123   0.142   0.151   0.168   0.190   0.199   0.223   0.229   0.250   0.262   0.265   0.262   0.261
   15 221   145     457     166      11      66     293       0       0       0     210    0.00     0.0     0.0    0.00    0.00   0.087   0.117   0.123   0.142   0.151   0.167   0.189   0.198   0.223   0.229   0.250   0.262   0.265   0.262   0.261
   15 222   146     457     165      11      66     293       0       0       0     210    0.00     0.0     0.0    0.00    0.00   0.082   0.117   0.123   0.142   0.150   0.167   0.189   0.198   0.223   0.229   0.250   0.262   0.265   0.262   0.261
   15 223   147     456     165      11      66     293       0       0       0     210    0.00     0.0     0.0    0.00    0.00   0.078   0.116   0.123   0.142   0.150   0.167   0.189   0.198   0.223   0.229   0.250   0.262   0.265   0.262   0.261
   15 224   148     456     165      11      66     293       0       0       0     210    0.00     0.0     0.0    0.00    0.00   0.074   0.116   0.123   0.142   0.150   0.167   0.189   0.198   0.223   0.229   0.250   0.262   0.265   0.262   0.261
   15 225   149     456     164      11      66     293       0       0       0     210    0.00     0.0     0.0    0.00    0.00   0.070   0.115   0.122   0.142   0.150   0.167   0.189   0.198   0.223   0.229   0.250   0.262   0.265   0.262   0.261
   15 226   150     459     168      11      66     297       0       0       0     210    0.00     0.0     0.0    0.00    0.00   0.143   0.115   0.122   0.141   0.150   0.167   0.188   0.198   0.223   0.229   0.250   0.262   0.265   0.262   0.261
   15 227   151     459     167      11      66     297       0       0       0     210    0.00     0.0     0.0    0.00    0.00   0.133   0.114   0.122   0.141   0.150   0.167   0.188   0.198   0.223   0.229   0.250   0.262   0.265   0.262   0.261
   15 228   152     464     173      11      66     303       0       0       0     210    0.00     0.0     0.0    0.00    0.00   0.231   0.118   0.122   0.141   0.150   0.167   0.188   0.197   0.223   0.229   0.250   0.262   0.265   0.262   0.261
   15 229   153     467     175      11      66     307       0       0       0     210    0.00     0.0     0.0    0.00    0.00   0.271   0.134   0.121   0.141   0.149   0.166   0.188   0.197   0.222   0.228   0.250   0.261   0.264   0.262   0.261
   15 230   154     463     171      11      66     307       0       0       0     210    0.00     0.0     0.0    0.00    0.00   0.232   0.139   0.119   0.139   0.148   0.165   0.186   0.195   0.221   0.227   0.248   0.260   0.263   0.261   0.260
   15 231   155     462     170      11      66     307       0       0       0     210    0.00     0.0     0.0    0.00    0.00   0.215   0.138   0.119   0.139   0.148   0.165   0.186   0.195   0.221   0.227   0.248   0.260   0.263   0.261   0.260
   15 232   156     461     169      11      66     307       0       0       0     210    0.00     0.0     0.0    0.00    0.00   0.198   0.138   0.119   0.138   0.148   0.165   0.186   0.195   0.221   0.227   0.248   0.260   0.263   0.261   0.260
   15 233   157     460     168      11      66     307       0       0       0     210    0.00     0.0     0.0    0.00    0.00   0.183   0.137   0.119   0.138   0.148   0.165   0.186   0.195   0.221   0.227   0.248   0.260   0.263   0.261   0.260
   15 234   158     459     168      11      66     307       0       0       0     210    0.00     0.0     0.0    0.00    0.00   0.170   0.136   0.119   0.138   0.148   0.164   0.186   0.195   0.221   0.227   0.248   0.260   0.263   0.261   0.260
   15 235   159     460     169      11      66     309       0       0       0     210    0.00     0.0     0.0    0.00    0.00   0.196   0.136   0.118   0.138   0.148   0.164   0.186   0.195   0.221   0.227   0.248   0.260   0.263   0.261   0.260
   15 236   160     477     185      11      66     330       0       0       0     210    0.00     0.0     0.0    0.17    0.00   0.300   0.258   0.152   0.136   0.146   0.163   0.184   0.194   0.219   0.225   0.247   0.259   0.262   0.260   0.259
   15 237   161     474     183      11      66     332       0       0       0     210    0.00     0.0     0.0    0.00    0.00   0.269   0.256   0.184   0.134   0.144   0.161   0.183   0.192   0.218   0.224   0.246   0.257   0.261   0.259   0.258
