*SOIL ORGANIC N BALANCE

*DSSAT Cropping System Model Ver. 4.8.5.000 -release  NOV 27, 2025 15:48:13

*RUN   1        : 1                         WHAPS048 TUDU1501    1
 MODEL          : WHAPS048 - Wheat
 EXPERIMENT     : TUDU1501 WH
 DATA PATH      :
 TREATMENT  1   : 1                         WHAPS048
  


!                                        INITIAL Year/Doy      FINAL Year/Doy
!                                                  15/077              15/237
!SOIL N BALANCE                                 -----------kg N/ha-----------

!   Soil Humus N                                 16872.67            16831.07
!   Soil Litter N                                   19.50               13.02
!   N in Surface Residue                             0.00                0.00

!   Added to / Removed from Soil:
!   N in Harvest Residues from Previous Crop         0.00
!   N from Organic Applications                      0.00
!   N from senesced plant matter                     0.00
!   N immobilized                                    0.39
!   N mineralized                                                       48.48

!   Total N balance                              16892.57            16892.57
!   Balance                                                             0.002

!===============================================================================

*DSSAT Cropping System Model Ver. 4.8.5.000 -release  NOV 27, 2025 15:48:13

*RUN   2        : 2                         WHAPS048 TUDU1501    2
 MODEL          : WHAPS048 - Wheat
 EXPERIMENT     : TUDU1501 WH
 DATA PATH      :
 TREATMENT  2   : 2                         WHAPS048
  


!                                        INITIAL Year/Doy      FINAL Year/Doy
!                                                  15/077              15/237
!SOIL N BALANCE                                 -----------kg N/ha-----------

!   Soil Humus N                                 16872.67            16831.15
!   Soil Litter N                                   19.50               13.02
!   N in Surface Residue                             0.00                0.00

!   Added to / Removed from Soil:
!   N in Harvest Residues from Previous Crop         0.00
!   N from Organic Applications                      0.00
!   N from senesced plant matter                     0.00
!   N immobilized                                    0.40
!   N mineralized                                                       48.40

!   Total N balance                              16892.57            16892.57
!   Balance                                                             0.004

!===============================================================================

*DSSAT Cropping System Model Ver. 4.8.5.000 -release  NOV 27, 2025 15:48:13

*RUN   3        : 3                         WHAPS048 TUDU1501    3
 MODEL          : WHAPS048 - Wheat
 EXPERIMENT     : TUDU1501 WH
 DATA PATH      :
 TREATMENT  3   : 3                         WHAPS048
  


!                                        INITIAL Year/Doy      FINAL Year/Doy
!                                                  15/077              15/237
!SOIL N BALANCE                                 -----------kg N/ha-----------

!   Soil Humus N                                 16872.67            16825.55
!   Soil Litter N                                   19.50               12.06
!   N in Surface Residue                             0.00                0.00

!   Added to / Removed from Soil:
!   N in Harvest Residues from Previous Crop         0.00
!   N from Organic Applications                      0.00
!   N from senesced plant matter                     0.00
!   N immobilized                                    0.34
!   N mineralized                                                       54.91

!   Total N balance                              16892.52            16892.52
!   Balance                                                             0.000

!===============================================================================

*DSSAT Cropping System Model Ver. 4.8.5.000 -release  NOV 27, 2025 15:48:13

*RUN   4        : 4                         WHAPS048 TUDU1501    4
 MODEL          : WHAPS048 - Wheat
 EXPERIMENT     : TUDU1501 WH
 DATA PATH      :
 TREATMENT  4   : 4                         WHAPS048
  


!                                        INITIAL Year/Doy      FINAL Year/Doy
!                                                  15/077              15/237
!SOIL N BALANCE                                 -----------kg N/ha-----------

!   Soil Humus N                                 16872.67            16831.11
!   Soil Litter N                                   19.50               13.02
!   N in Surface Residue                             0.00                0.00

!   Added to / Removed from Soil:
!   N in Harvest Residues from Previous Crop         0.00
!   N from Organic Applications                      0.00
!   N from senesced plant matter                     0.00
!   N immobilized                                    0.39
!   N mineralized                                                       48.44

!   Total N balance                              16892.57            16892.57
!   Balance                                                             0.002

!===============================================================================

*DSSAT Cropping System Model Ver. 4.8.5.000 -release  NOV 27, 2025 15:48:13

*RUN   5        : 5                         WHAPS048 TUDU1501    5
 MODEL          : WHAPS048 - Wheat
 EXPERIMENT     : TUDU1501 WH
 DATA PATH      :
 TREATMENT  5   : 5                         WHAPS048
  


!                                        INITIAL Year/Doy      FINAL Year/Doy
!                                                  15/077              15/237
!SOIL N BALANCE                                 -----------kg N/ha-----------

!   Soil Humus N                                 16872.67            16831.45
!   Soil Litter N                                   19.50               12.93
!   N in Surface Residue                             0.00                0.00

!   Added to / Removed from Soil:
!   N in Harvest Residues from Previous Crop         0.00
!   N from Organic Applications                      0.00
!   N from senesced plant matter                     0.00
!   N immobilized                                    0.40
!   N mineralized                                                       48.18

!   Total N balance                              16892.57            16892.57
!   Balance                                                             0.000

!===============================================================================

*DSSAT Cropping System Model Ver. 4.8.5.000 -release  NOV 27, 2025 15:48:13

*RUN   6        : 6                         WHAPS048 TUDU1501    6
 MODEL          : WHAPS048 - Wheat
 EXPERIMENT     : TUDU1501 WH
 DATA PATH      :
 TREATMENT  6   : 6                         WHAPS048
  


!                                        INITIAL Year/Doy      FINAL Year/Doy
!                                                  15/077              15/237
!SOIL N BALANCE                                 -----------kg N/ha-----------

!   Soil Humus N                                 16872.67            16831.10
!   Soil Litter N                                   19.50               13.04
!   N in Surface Residue                             0.00                0.00

!   Added to / Removed from Soil:
!   N in Harvest Residues from Previous Crop         0.00
!   N from Organic Applications                      0.00
!   N from senesced plant matter                     0.00
!   N immobilized                                    0.40
!   N mineralized                                                       48.43

!   Total N balance                              16892.57            16892.57
!   Balance                                                             0.000

!===============================================================================

*DSSAT Cropping System Model Ver. 4.8.5.000 -release  NOV 27, 2025 15:48:13

*RUN   7        : 7                         WHAPS048 TUDU1501    7
 MODEL          : WHAPS048 - Wheat
 EXPERIMENT     : TUDU1501 WH
 DATA PATH      :
 TREATMENT  7   : 7                         WHAPS048
  


!                                        INITIAL Year/Doy      FINAL Year/Doy
!                                                  15/077              15/237
!SOIL N BALANCE                                 -----------kg N/ha-----------

!   Soil Humus N                                 16872.67            16831.46
!   Soil Litter N                                   19.50               12.92
!   N in Surface Residue                             0.00                0.00

!   Added to / Removed from Soil:
!   N in Harvest Residues from Previous Crop         0.00
!   N from Organic Applications                      0.00
!   N from senesced plant matter                     0.00
!   N immobilized                                    0.40
!   N mineralized                                                       48.18

!   Total N balance                              16892.57            16892.57
!   Balance                                                             0.000

!===============================================================================

*DSSAT Cropping System Model Ver. 4.8.5.000 -release  NOV 27, 2025 15:48:13

*RUN   8        : 8                         WHAPS048 TUDU1501    8
 MODEL          : WHAPS048 - Wheat
 EXPERIMENT     : TUDU1501 WH
 DATA PATH      :
 TREATMENT  8   : 8                         WHAPS048
  


!                                        INITIAL Year/Doy      FINAL Year/Doy
!                                                  15/077              15/237
!SOIL N BALANCE                                 -----------kg N/ha-----------

!   Soil Humus N                                 16872.67            16831.62
!   Soil Litter N                                   19.50               12.86
!   N in Surface Residue                             0.00                0.00

!   Added to / Removed from Soil:
!   N in Harvest Residues from Previous Crop         0.00
!   N from Organic Applications                      0.00
!   N from senesced plant matter                     0.00
!   N immobilized                                    0.40
!   N mineralized                                                       48.09

!   Total N balance                              16892.57            16892.57
!   Balance                                                             0.002

!===============================================================================

*DSSAT Cropping System Model Ver. 4.8.5.000 -release  NOV 27, 2025 15:48:14

*RUN   9        : 9                         WHAPS048 TUDU1501    9
 MODEL          : WHAPS048 - Wheat
 EXPERIMENT     : TUDU1501 WH
 DATA PATH      :
 TREATMENT  9   : 9                         WHAPS048
  


!                                        INITIAL Year/Doy      FINAL Year/Doy
!                                                  15/077              15/237
!SOIL N BALANCE                                 -----------kg N/ha-----------

!   Soil Humus N                                 16872.67            16831.75
!   Soil Litter N                                   19.50               12.82
!   N in Surface Residue                             0.00                0.00

!   Added to / Removed from Soil:
!   N in Harvest Residues from Previous Crop         0.00
!   N from Organic Applications                      0.00
!   N from senesced plant matter                     0.00
!   N immobilized                                    0.40
!   N mineralized                                                       48.00

!   Total N balance                              16892.57            16892.57
!   Balance                                                             0.000

!===============================================================================

*DSSAT Cropping System Model Ver. 4.8.5.000 -release  NOV 27, 2025 15:48:14

*RUN  10        : 10                        WHAPS048 TUDU1501   10
 MODEL          : WHAPS048 - Wheat
 EXPERIMENT     : TUDU1501 WH
 DATA PATH      :
 TREATMENT 10   : 10                        WHAPS048
  


!                                        INITIAL Year/Doy      FINAL Year/Doy
!                                                  15/077              15/237
!SOIL N BALANCE                                 -----------kg N/ha-----------

!   Soil Humus N                                 16872.67            16825.55
!   Soil Litter N                                   19.50               12.06
!   N in Surface Residue                             0.00                0.00

!   Added to / Removed from Soil:
!   N in Harvest Residues from Previous Crop         0.00
!   N from Organic Applications                      0.00
!   N from senesced plant matter                     0.00
!   N immobilized                                    0.34
!   N mineralized                                                       54.91

!   Total N balance                              16892.52            16892.52
!   Balance                                                             0.000

!===============================================================================

*DSSAT Cropping System Model Ver. 4.8.5.000 -release  NOV 27, 2025 15:48:14

*RUN  11        : 11                        WHAPS048 TUDU1501   11
 MODEL          : WHAPS048 - Wheat
 EXPERIMENT     : TUDU1501 WH
 DATA PATH      :
 TREATMENT 11   : 11                        WHAPS048
  


!                                        INITIAL Year/Doy      FINAL Year/Doy
!                                                  15/077              15/237
!SOIL N BALANCE                                 -----------kg N/ha-----------

!   Soil Humus N                                 16872.67            16831.74
!   Soil Litter N                                   19.50               12.82
!   N in Surface Residue                             0.00                0.00

!   Added to / Removed from Soil:
!   N in Harvest Residues from Previous Crop         0.00
!   N from Organic Applications                      0.00
!   N from senesced plant matter                     0.00
!   N immobilized                                    0.40
!   N mineralized                                                       48.01

!   Total N balance                              16892.57            16892.57
!   Balance                                                             0.002

!===============================================================================

*DSSAT Cropping System Model Ver. 4.8.5.000 -release  NOV 27, 2025 15:48:14

*RUN  12        : 12                        WHAPS048 TUDU1501   12
 MODEL          : WHAPS048 - Wheat
 EXPERIMENT     : TUDU1501 WH
 DATA PATH      :
 TREATMENT 12   : 12                        WHAPS048
  


!                                        INITIAL Year/Doy      FINAL Year/Doy
!                                                  15/077              15/237
!SOIL N BALANCE                                 -----------kg N/ha-----------

!   Soil Humus N                                 16872.67            16831.74
!   Soil Litter N                                   19.50               12.82
!   N in Surface Residue                             0.00                0.00

!   Added to / Removed from Soil:
!   N in Harvest Residues from Previous Crop         0.00
!   N from Organic Applications                      0.00
!   N from senesced plant matter                     0.00
!   N immobilized                                    0.40
!   N mineralized                                                       48.01

!   Total N balance                              16892.57            16892.57
!   Balance                                                            -0.002

!===============================================================================

*DSSAT Cropping System Model Ver. 4.8.5.000 -release  NOV 27, 2025 15:48:14

*RUN  13        : 13                        WHAPS048 TUDU1501   13
 MODEL          : WHAPS048 - Wheat
 EXPERIMENT     : TUDU1501 WH
 DATA PATH      :
 TREATMENT 13   : 13                        WHAPS048
  


!                                        INITIAL Year/Doy      FINAL Year/Doy
!                                                  15/077              15/237
!SOIL N BALANCE                                 -----------kg N/ha-----------

!   Soil Humus N                                 16872.67            16831.60
!   Soil Litter N                                   19.50               12.87
!   N in Surface Residue                             0.00                0.00

!   Added to / Removed from Soil:
!   N in Harvest Residues from Previous Crop         0.00
!   N from Organic Applications                      0.00
!   N from senesced plant matter                     0.00
!   N immobilized                                    0.40
!   N mineralized                                                       48.10

!   Total N balance                              16892.57            16892.57
!   Balance                                                             0.000

!===============================================================================

*DSSAT Cropping System Model Ver. 4.8.5.000 -release  NOV 27, 2025 15:48:14

*RUN  14        : 14                        WHAPS048 TUDU1501   14
 MODEL          : WHAPS048 - Wheat
 EXPERIMENT     : TUDU1501 WH
 DATA PATH      :
 TREATMENT 14   : 14                        WHAPS048
  


!                                        INITIAL Year/Doy      FINAL Year/Doy
!                                                  15/077              15/237
!SOIL N BALANCE                                 -----------kg N/ha-----------

!   Soil Humus N                                 16872.67            16831.44
!   Soil Litter N                                   19.50               12.95
!   N in Surface Residue                             0.00                0.00

!   Added to / Removed from Soil:
!   N in Harvest Residues from Previous Crop         0.00
!   N from Organic Applications                      0.00
!   N from senesced plant matter                     0.00
!   N immobilized                                    0.40
!   N mineralized                                                       48.18

!   Total N balance                              16892.57            16892.57
!   Balance                                                             0.000

!===============================================================================

*DSSAT Cropping System Model Ver. 4.8.5.000 -release  NOV 27, 2025 15:48:14

*RUN  15        : 15                        WHAPS048 TUDU1501   15
 MODEL          : WHAPS048 - Wheat
 EXPERIMENT     : TUDU1501 WH
 DATA PATH      :
 TREATMENT 15   : 15                        WHAPS048
  


!                                        INITIAL Year/Doy      FINAL Year/Doy
!                                                  15/077              15/237
!SOIL N BALANCE                                 -----------kg N/ha-----------

!   Soil Humus N                                 16872.67            16825.54
!   Soil Litter N                                   19.50               12.05
!   N in Surface Residue                             0.00                0.00

!   Added to / Removed from Soil:
!   N in Harvest Residues from Previous Crop         0.00
!   N from Organic Applications                      0.00
!   N from senesced plant matter                     0.00
!   N immobilized                                    0.34
!   N mineralized                                                       54.93

!   Total N balance                              16892.52            16892.52
!   Balance                                                             0.000
