*WATER BALANCE OUTPUT FILE

*DSSAT Cropping System Model Ver. 4.8.5.000 -release  NOV 27, 2025 15:48:13

*RUN   1        : 1                         WHAPS048 TUDU1501    1
 MODEL          : WHAPS048 - Wheat
 EXPERIMENT     : TUDU1501 WH
 DATA PATH      :
 TREATMENT  1   : 1                         WHAPS048
  

!     WATER BALANCE PARAMETERS
!     ========================                 --mm--

!     Soil H20 (start) on Year/day   15/077    544.80
!     Soil H20 (final) on Year/day   15/237    428.82
!     Effective Irrigation                       0.00
!     Precipitation                            332.00
!     Water added with new mulch                 0.00
!     Net lateral flow                           0.00
!     Drainage                                  39.76
!     Tiledrain flow                             0.00
!     Runoff                                    10.67
!     Mulch evaporation                          0.00
!     Soil Evaporation                         142.07
!     Transpiration                            255.49
!     Total evapotranspiration                 397.55
!     Total potential evapotranspiration       605.59

!     Initial mulch water content                0.00
!     Final mulch water content                  0.00

!     Final Balance                            -0.004


*DSSAT Cropping System Model Ver. 4.8.5.000 -release  NOV 27, 2025 15:48:13

*RUN   2        : 2                         WHAPS048 TUDU1501    2
 MODEL          : WHAPS048 - Wheat
 EXPERIMENT     : TUDU1501 WH
 DATA PATH      :
 TREATMENT  2   : 2                         WHAPS048
  

!     WATER BALANCE PARAMETERS
!     ========================                 --mm--

!     Soil H20 (start) on Year/day   15/077    544.80
!     Soil H20 (final) on Year/day   15/237    429.11
!     Effective Irrigation                       0.00
!     Precipitation                            332.00
!     Water added with new mulch                 0.00
!     Net lateral flow                           0.00
!     Drainage                                  37.05
!     Tiledrain flow                             0.00
!     Runoff                                    10.66
!     Mulch evaporation                          0.00
!     Soil Evaporation                         139.95
!     Transpiration                            260.04
!     Total evapotranspiration                 399.99
!     Total potential evapotranspiration       604.79

!     Initial mulch water content                0.00
!     Final mulch water content                  0.00

!     Final Balance                            -0.004


*DSSAT Cropping System Model Ver. 4.8.5.000 -release  NOV 27, 2025 15:48:13

*RUN   3        : 3                         WHAPS048 TUDU1501    3
 MODEL          : WHAPS048 - Wheat
 EXPERIMENT     : TUDU1501 WH
 DATA PATH      :
 TREATMENT  3   : 3                         WHAPS048
  

!     WATER BALANCE PARAMETERS
!     ========================                 --mm--

!     Soil H20 (start) on Year/day   15/077    544.80
!     Soil H20 (final) on Year/day   15/237    474.25
!     Effective Irrigation                       0.00
!     Precipitation                            332.00
!     Water added with new mulch                 0.00
!     Net lateral flow                           0.00
!     Drainage                                  65.63
!     Tiledrain flow                             0.00
!     Runoff                                    11.24
!     Mulch evaporation                          0.00
!     Soil Evaporation                         192.29
!     Transpiration                            133.39
!     Total evapotranspiration                 325.68
!     Total potential evapotranspiration       628.33

!     Initial mulch water content                0.00
!     Final mulch water content                  0.00

!     Final Balance                            -0.005


*DSSAT Cropping System Model Ver. 4.8.5.000 -release  NOV 27, 2025 15:48:13

*RUN   4        : 4                         WHAPS048 TUDU1501    4
 MODEL          : WHAPS048 - Wheat
 EXPERIMENT     : TUDU1501 WH
 DATA PATH      :
 TREATMENT  4   : 4                         WHAPS048
  

!     WATER BALANCE PARAMETERS
!     ========================                 --mm--

!     Soil H20 (start) on Year/day   15/077    544.80
!     Soil H20 (final) on Year/day   15/237    429.46
!     Effective Irrigation                       0.00
!     Precipitation                            332.00
!     Water added with new mulch                 0.00
!     Net lateral flow                           0.00
!     Drainage                                  37.42
!     Tiledrain flow                             0.00
!     Runoff                                    10.66
!     Mulch evaporation                          0.00
!     Soil Evaporation                         140.36
!     Transpiration                            258.90
!     Total evapotranspiration                 399.27
!     Total potential evapotranspiration       604.94

!     Initial mulch water content                0.00
!     Final mulch water content                  0.00

!     Final Balance                            -0.005


*DSSAT Cropping System Model Ver. 4.8.5.000 -release  NOV 27, 2025 15:48:13

*RUN   5        : 5                         WHAPS048 TUDU1501    5
 MODEL          : WHAPS048 - Wheat
 EXPERIMENT     : TUDU1501 WH
 DATA PATH      :
 TREATMENT  5   : 5                         WHAPS048
  

!     WATER BALANCE PARAMETERS
!     ========================                 --mm--

!     Soil H20 (start) on Year/day   15/077    544.80
!     Soil H20 (final) on Year/day   15/237    428.99
!     Effective Irrigation                       0.00
!     Precipitation                            332.00
!     Water added with new mulch                 0.00
!     Net lateral flow                           0.00
!     Drainage                                  28.98
!     Tiledrain flow                             0.00
!     Runoff                                    10.69
!     Mulch evaporation                          0.00
!     Soil Evaporation                         130.00
!     Transpiration                            278.15
!     Total evapotranspiration                 408.15
!     Total potential evapotranspiration       601.53

!     Initial mulch water content                0.00
!     Final mulch water content                  0.00

!     Final Balance                            -0.002


*DSSAT Cropping System Model Ver. 4.8.5.000 -release  NOV 27, 2025 15:48:13

*RUN   6        : 6                         WHAPS048 TUDU1501    6
 MODEL          : WHAPS048 - Wheat
 EXPERIMENT     : TUDU1501 WH
 DATA PATH      :
 TREATMENT  6   : 6                         WHAPS048
  

!     WATER BALANCE PARAMETERS
!     ========================                 --mm--

!     Soil H20 (start) on Year/day   15/077    544.80
!     Soil H20 (final) on Year/day   15/237    428.70
!     Effective Irrigation                       0.00
!     Precipitation                            332.00
!     Water added with new mulch                 0.00
!     Net lateral flow                           0.00
!     Drainage                                  38.64
!     Tiledrain flow                             0.00
!     Runoff                                    10.67
!     Mulch evaporation                          0.00
!     Soil Evaporation                         141.89
!     Transpiration                            256.90
!     Total evapotranspiration                 398.79
!     Total potential evapotranspiration       605.50

!     Initial mulch water content                0.00
!     Final mulch water content                  0.00

!     Final Balance                            -0.004


*DSSAT Cropping System Model Ver. 4.8.5.000 -release  NOV 27, 2025 15:48:13

*RUN   7        : 7                         WHAPS048 TUDU1501    7
 MODEL          : WHAPS048 - Wheat
 EXPERIMENT     : TUDU1501 WH
 DATA PATH      :
 TREATMENT  7   : 7                         WHAPS048
  

!     WATER BALANCE PARAMETERS
!     ========================                 --mm--

!     Soil H20 (start) on Year/day   15/077    544.80
!     Soil H20 (final) on Year/day   15/237    427.92
!     Effective Irrigation                       0.00
!     Precipitation                            332.00
!     Water added with new mulch                 0.00
!     Net lateral flow                           0.00
!     Drainage                                  30.38
!     Tiledrain flow                             0.00
!     Runoff                                    10.71
!     Mulch evaporation                          0.00
!     Soil Evaporation                         130.87
!     Transpiration                            276.91
!     Total evapotranspiration                 407.79
!     Total potential evapotranspiration       601.85

!     Initial mulch water content                0.00
!     Final mulch water content                  0.00

!     Final Balance                            -0.000


*DSSAT Cropping System Model Ver. 4.8.5.000 -release  NOV 27, 2025 15:48:13

*RUN   8        : 8                         WHAPS048 TUDU1501    8
 MODEL          : WHAPS048 - Wheat
 EXPERIMENT     : TUDU1501 WH
 DATA PATH      :
 TREATMENT  8   : 8                         WHAPS048
  

!     WATER BALANCE PARAMETERS
!     ========================                 --mm--

!     Soil H20 (start) on Year/day   15/077    544.80
!     Soil H20 (final) on Year/day   15/237    428.94
!     Effective Irrigation                       0.00
!     Precipitation                            332.00
!     Water added with new mulch                 0.00
!     Net lateral flow                           0.00
!     Drainage                                  25.70
!     Tiledrain flow                             0.00
!     Runoff                                    10.70
!     Mulch evaporation                          0.00
!     Soil Evaporation                         125.94
!     Transpiration                            285.53
!     Total evapotranspiration                 411.47
!     Total potential evapotranspiration       600.47

!     Initial mulch water content                0.00
!     Final mulch water content                  0.00

!     Final Balance                            -0.002


*DSSAT Cropping System Model Ver. 4.8.5.000 -release  NOV 27, 2025 15:48:14

*RUN   9        : 9                         WHAPS048 TUDU1501    9
 MODEL          : WHAPS048 - Wheat
 EXPERIMENT     : TUDU1501 WH
 DATA PATH      :
 TREATMENT  9   : 9                         WHAPS048
  

!     WATER BALANCE PARAMETERS
!     ========================                 --mm--

!     Soil H20 (start) on Year/day   15/077    544.80
!     Soil H20 (final) on Year/day   15/237    428.28
!     Effective Irrigation                       0.00
!     Precipitation                            332.00
!     Water added with new mulch                 0.00
!     Net lateral flow                           0.00
!     Drainage                                  22.53
!     Tiledrain flow                             0.00
!     Runoff                                    10.70
!     Mulch evaporation                          0.00
!     Soil Evaporation                         123.82
!     Transpiration                            291.48
!     Total evapotranspiration                 415.30
!     Total potential evapotranspiration       599.94

!     Initial mulch water content                0.00
!     Final mulch water content                  0.00

!     Final Balance                            -0.005


*DSSAT Cropping System Model Ver. 4.8.5.000 -release  NOV 27, 2025 15:48:14

*RUN  10        : 10                        WHAPS048 TUDU1501   10
 MODEL          : WHAPS048 - Wheat
 EXPERIMENT     : TUDU1501 WH
 DATA PATH      :
 TREATMENT 10   : 10                        WHAPS048
  

!     WATER BALANCE PARAMETERS
!     ========================                 --mm--

!     Soil H20 (start) on Year/day   15/077    544.80
!     Soil H20 (final) on Year/day   15/237    474.25
!     Effective Irrigation                       0.00
!     Precipitation                            332.00
!     Water added with new mulch                 0.00
!     Net lateral flow                           0.00
!     Drainage                                  65.63
!     Tiledrain flow                             0.00
!     Runoff                                    11.24
!     Mulch evaporation                          0.00
!     Soil Evaporation                         192.29
!     Transpiration                            133.39
!     Total evapotranspiration                 325.68
!     Total potential evapotranspiration       628.33

!     Initial mulch water content                0.00
!     Final mulch water content                  0.00

!     Final Balance                            -0.004


*DSSAT Cropping System Model Ver. 4.8.5.000 -release  NOV 27, 2025 15:48:14

*RUN  11        : 11                        WHAPS048 TUDU1501   11
 MODEL          : WHAPS048 - Wheat
 EXPERIMENT     : TUDU1501 WH
 DATA PATH      :
 TREATMENT 11   : 11                        WHAPS048
  

!     WATER BALANCE PARAMETERS
!     ========================                 --mm--

!     Soil H20 (start) on Year/day   15/077    544.80
!     Soil H20 (final) on Year/day   15/237    428.34
!     Effective Irrigation                       0.00
!     Precipitation                            332.00
!     Water added with new mulch                 0.00
!     Net lateral flow                           0.00
!     Drainage                                  22.95
!     Tiledrain flow                             0.00
!     Runoff                                    10.71
!     Mulch evaporation                          0.00
!     Soil Evaporation                         124.00
!     Transpiration                            290.81
!     Total evapotranspiration                 414.81
!     Total potential evapotranspiration       599.98

!     Initial mulch water content                0.00
!     Final mulch water content                  0.00

!     Final Balance                            -0.004


*DSSAT Cropping System Model Ver. 4.8.5.000 -release  NOV 27, 2025 15:48:14

*RUN  12        : 12                        WHAPS048 TUDU1501   12
 MODEL          : WHAPS048 - Wheat
 EXPERIMENT     : TUDU1501 WH
 DATA PATH      :
 TREATMENT 12   : 12                        WHAPS048
  

!     WATER BALANCE PARAMETERS
!     ========================                 --mm--

!     Soil H20 (start) on Year/day   15/077    544.80
!     Soil H20 (final) on Year/day   15/237    428.33
!     Effective Irrigation                       0.00
!     Precipitation                            332.00
!     Water added with new mulch                 0.00
!     Net lateral flow                           0.00
!     Drainage                                  22.83
!     Tiledrain flow                             0.00
!     Runoff                                    10.69
!     Mulch evaporation                          0.00
!     Soil Evaporation                         124.00
!     Transpiration                            290.95
!     Total evapotranspiration                 414.95
!     Total potential evapotranspiration       599.98

!     Initial mulch water content                0.00
!     Final mulch water content                  0.00

!     Final Balance                            -0.005


*DSSAT Cropping System Model Ver. 4.8.5.000 -release  NOV 27, 2025 15:48:14

*RUN  13        : 13                        WHAPS048 TUDU1501   13
 MODEL          : WHAPS048 - Wheat
 EXPERIMENT     : TUDU1501 WH
 DATA PATH      :
 TREATMENT 13   : 13                        WHAPS048
  

!     WATER BALANCE PARAMETERS
!     ========================                 --mm--

!     Soil H20 (start) on Year/day   15/077    544.80
!     Soil H20 (final) on Year/day   15/237    429.05
!     Effective Irrigation                       0.00
!     Precipitation                            332.00
!     Water added with new mulch                 0.00
!     Net lateral flow                           0.00
!     Drainage                                  26.10
!     Tiledrain flow                             0.00
!     Runoff                                    10.71
!     Mulch evaporation                          0.00
!     Soil Evaporation                         126.34
!     Transpiration                            284.60
!     Total evapotranspiration                 410.94
!     Total potential evapotranspiration       600.57

!     Initial mulch water content                0.00
!     Final mulch water content                  0.00

!     Final Balance                            -0.003


*DSSAT Cropping System Model Ver. 4.8.5.000 -release  NOV 27, 2025 15:48:14

*RUN  14        : 14                        WHAPS048 TUDU1501   14
 MODEL          : WHAPS048 - Wheat
 EXPERIMENT     : TUDU1501 WH
 DATA PATH      :
 TREATMENT 14   : 14                        WHAPS048
  

!     WATER BALANCE PARAMETERS
!     ========================                 --mm--

!     Soil H20 (start) on Year/day   15/077    544.80
!     Soil H20 (final) on Year/day   15/237    430.20
!     Effective Irrigation                       0.00
!     Precipitation                            332.00
!     Water added with new mulch                 0.00
!     Net lateral flow                           0.00
!     Drainage                                  28.94
!     Tiledrain flow                             0.00
!     Runoff                                    10.69
!     Mulch evaporation                          0.00
!     Soil Evaporation                         129.90
!     Transpiration                            277.08
!     Total evapotranspiration                 406.98
!     Total potential evapotranspiration       601.50

!     Initial mulch water content                0.00
!     Final mulch water content                  0.00

!     Final Balance                            -0.006


*DSSAT Cropping System Model Ver. 4.8.5.000 -release  NOV 27, 2025 15:48:14

*RUN  15        : 15                        WHAPS048 TUDU1501   15
 MODEL          : WHAPS048 - Wheat
 EXPERIMENT     : TUDU1501 WH
 DATA PATH      :
 TREATMENT 15   : 15                        WHAPS048
  

!     WATER BALANCE PARAMETERS
!     ========================                 --mm--

!     Soil H20 (start) on Year/day   15/077    544.80
!     Soil H20 (final) on Year/day   15/237    474.19
!     Effective Irrigation                       0.00
!     Precipitation                            332.00
!     Water added with new mulch                 0.00
!     Net lateral flow                           0.00
!     Drainage                                  65.63
!     Tiledrain flow                             0.00
!     Runoff                                    11.24
!     Mulch evaporation                          0.00
!     Soil Evaporation                         192.36
!     Transpiration                            133.38
!     Total evapotranspiration                 325.74
!     Total potential evapotranspiration       628.33

!     Initial mulch water content                0.00
!     Final mulch water content                  0.00

!     Final Balance                            -0.005

