*Soil Organic Matter daily output file

*DSSAT Cropping System Model Ver. 4.8.5.000 -release  NOV 27, 2025 15:48:13

*RUN   1        : 1                         WHAPS048 TUDU1501    1
 MODEL          : WHAPS048 - Wheat
 EXPERIMENT     : TUDU1501 WH
 DATA PATH      :
 TREATMENT  1   : 1                         WHAPS048
  
@YEAR DOY   DAS    OMAC    SCDD    SOCD    SC0D    SCTD   SOMCT    LCTD    ONAC    SNDD    SOND    SN0D    SNTD   SOMNT    LNTD
   15 076     0       0   31829  311106       0  311106  310026  1080.0    0.00  1073.9 16892.2    0.00 16892.2 16872.7   19.50
   15 077     1       0   31551  311093       0  311093  310024  1069.3    0.00  1063.2 16892.2    0.00 16892.2 16872.5   19.65
   15 078     2       0   31551  311083       0  311083  310022  1060.4    0.00  1063.2 16892.1    0.00 16892.1 16872.4   19.78
   15 079     3       0   31552  311074       0  311074  310021  1053.4    0.00  1063.2 16892.1    0.00 16892.1 16872.2   19.87
   15 080     4       0   31562  311069       0  311069  310020  1048.6    0.00  1063.6 16892.1    0.00 16892.1 16872.2   19.93
   15 081     5       0   31562  311065       0  311065  310019  1045.5    0.00  1063.6 16892.1    0.00 16892.1 16872.1   19.97
   15 082     6       0   31562  311064       0  311064  310019  1044.9    0.00  1063.6 16892.1    0.00 16892.1 16872.1   19.98
   15 083     7       0   31562  311064       0  311064  310019  1044.8    0.00  1063.6 16892.0    0.00 16892.0 16872.1   19.98
   15 084     8       0   31562  311064       0  311064  310019  1044.8    0.00  1063.6 16892.0    0.00 16892.0 16872.1   19.98
   15 085     9       0   31562  311063       0  311063  310019  1044.3    0.00  1063.6 16892.0    0.00 16892.0 16872.0   19.99
   15 086    10       0   31567  311062       0  311062  310019  1043.8    0.00  1063.8 16892.0    0.00 16892.0 16872.0   20.00
   15 087    11       0   31567  311061       0  311061  310018  1042.4    0.00  1063.8 16892.0    0.00 16892.0 16872.0   20.02
   15 088    12       0   31567  311058       0  311058  310017  1040.2    0.00  1063.8 16892.0    0.00 16892.0 16871.9   20.05
   15 089    13       0   31599  311054       0  311054  310017  1037.2    0.00  1065.0 16891.9    0.00 16891.9 16871.9   20.09
   15 090    14       0   31612  311051       0  311051  310016  1034.4    0.00  1065.5 16891.9    0.00 16891.9 16871.8   20.12
   15 091    15       0   31624  311047       0  311047  310015  1031.1    0.00  1066.0 16891.9    0.00 16891.9 16871.7   20.16
   15 092    16       0   31639  311044       0  311044  310015  1028.8    0.00  1066.5 16891.9    0.00 16891.9 16871.7   20.18
   15 093    17       0   31639  311042       0  311042  310015  1027.8    0.00  1066.5 16891.9    0.00 16891.9 16871.7   20.20
   15 094    18       0   31653  311042       0  311042  310015  1027.8    0.00  1067.1 16891.9    0.00 16891.9 16871.7   20.20
   15 095    19       0   31653  311042       0  311042  310015  1027.7    0.00  1067.1 16891.9    0.00 16891.9 16871.7   20.20
   15 096    20       0   31653  311042       0  311042  310015  1027.7    0.00  1067.1 16891.9    0.00 16891.9 16871.7   20.20
   15 097    21       0   31653  311042       0  311042  310015  1027.7    0.00  1067.1 16891.9    0.00 16891.9 16871.7   20.20
   15 098    22       0   31653  311042       0  311042  310015  1027.7    0.00  1067.1 16891.9    0.00 16891.9 16871.7   20.20
   15 099    23       0   31653  311042       0  311042  310015  1027.7    0.00  1067.1 16891.9    0.00 16891.9 16871.7   20.20
   15 100    24       0   31653  311042       0  311042  310015  1027.7    0.00  1067.1 16891.9    0.00 16891.9 16871.7   20.20
   15 101    25       0   31653  311039       0  311039  310014  1025.1    0.00  1067.1 16891.8    0.00 16891.8 16871.6   20.23
   15 102    26       0   31653  311032       0  311032  310013  1019.3    0.00  1067.1 16891.8    0.00 16891.8 16871.5   20.29
   15 103    27       0   31654  311022       0  311022  310011  1010.9    0.00  1067.1 16891.8    0.00 16891.8 16871.4   20.38
   15 104    28       0   31654  311010       0  311010  310009  1001.3    0.00  1067.1 16891.7    0.00 16891.7 16871.2   20.48
   15 105    29       0   31654  310998       0  310998  310006   991.8    0.00  1067.1 16891.6    0.00 16891.6 16871.0   20.58
   15 106    30       0   31654  310986       0  310986  310004   981.8    0.00  1067.1 16891.5    0.00 16891.5 16870.8   20.67
   15 107    31       0   31719  310972       0  310972  310001   971.6    0.00  1069.6 16891.3    0.00 16891.3 16870.6   20.76
   15 108    32       0   31720  310957       0  310957  309998   958.5    0.00  1069.6 16891.2    0.00 16891.2 16870.4   20.86
   15 109    33       0   31720  310943       0  310943  309996   946.6    0.00  1069.6 16891.1    0.00 16891.1 16870.2   20.93
   15 110    34       0   31721  310931       0  310931  309994   936.6    0.00  1069.6 16891.0    0.00 16891.0 16870.1   20.98
   15 111    35       0   31721  310923       0  310923  309993   929.4    0.00  1069.6 16891.0    0.00 16891.0 16869.9   21.01
   15 112    36       0   31721  310916       0  310916  309992   924.3    0.00  1069.6 16890.9    0.00 16890.9 16869.9   21.03
   15 113    37       0   31721  310910       0  310910  309991   919.5    0.00  1069.6 16890.8    0.00 16890.8 16869.8   21.05
   15 114    38       0   31721  310904       0  310904  309990   914.6    0.00  1069.6 16890.8    0.00 16890.8 16869.7   21.07
   15 115    39       0   31723  310897       0  310897  309988   909.1    0.00  1069.7 16890.7    0.00 16890.7 16869.6   21.10
   15 116    40       0   31726  310889       0  310889  309986   902.9    0.00  1069.8 16890.6    0.00 16890.6 16869.4   21.12
   15 117    41       0   31736  310880       0  310880  309984   895.4    0.00  1070.1 16890.4    0.00 16890.4 16869.3   21.15
   15 118    42       0   31747  310868       0  310868  309982   885.9    0.00  1070.5 16890.3    0.00 16890.3 16869.1   21.17
   15 119    43       0   31747  310855       0  310855  309979   875.5    0.00  1070.5 16890.1    0.00 16890.1 16868.9   21.19
   15 120    44       0   31749  310843       0  310843  309977   865.5    0.00  1070.6 16890.0    0.00 16890.0 16868.8   21.20
   15 121    45       0   31787  310831       0  310831  309975   856.0    0.00  1072.1 16889.8    0.00 16889.8 16868.6   21.20
   15 122    46       0   31788  310823       0  310823  309973   850.1    0.00  1072.1 16889.7    0.00 16889.7 16868.5   21.20
   15 123    47       0   31835  310817       0  310817  309972   845.1    0.00  1073.9 16889.6    0.00 16889.6 16868.4   21.20
   15 124    48       0   31835  310809       0  310809  309969   839.5    0.00  1073.9 16889.4    0.00 16889.4 16868.2   21.20
   15 125    49       0   31835  310797       0  310797  309967   830.5    0.00  1073.9 16889.2    0.00 16889.2 16868.0   21.19
   15 126    50       0   31835  310782       0  310782  309963   819.5    0.00  1073.9 16889.0    0.00 16889.0 16867.8   21.18
   15 127    51       0   31835  310768       0  310768  309959   809.6    0.00  1073.9 16888.7    0.00 16888.7 16867.5   21.17
   15 128    52       0   31835  310752       0  310752  309954   797.9    0.00  1073.9 16888.4    0.00 16888.4 16867.2   21.15
   15 129    53       0   31835  310735       0  310735  309950   785.4    0.00  1073.9 16888.1    0.00 16888.1 16866.9   21.11
   15 130    54       0   31835  310720       0  310720  309945   774.5    0.00  1073.9 16887.7    0.00 16887.7 16866.7   21.07
   15 131    55       0   31835  310707       0  310707  309941   765.3    0.00  1073.9 16887.5    0.00 16887.5 16866.4   21.03
   15 132    56       0   31835  310693       0  310693  309937   756.4    0.00  1073.9 16887.2    0.00 16887.2 16866.2   20.99
   15 133    57       0   31835  310679       0  310679  309932   747.1    0.00  1073.9 16886.8    0.00 16886.8 16865.9   20.94
   15 134    58       0   31835  310664       0  310664  309927   737.1    0.00  1073.9 16886.4    0.00 16886.4 16865.6   20.88
   15 135    59       0   31835  310649       0  310649  309922   727.7    0.00  1073.9 16886.1    0.00 16886.1 16865.2   20.82
   15 136    60       0   31834  310635       0  310635  309916   719.0    0.00  1073.8 16885.7    0.00 16885.7 16864.9   20.76
   15 137    61       0   31834  310622       0  310622  309911   710.7    0.00  1073.8 16885.3    0.00 16885.3 16864.6   20.70
   15 138    62       0   31834  310610       0  310610  309907   703.0    0.00  1073.8 16885.0    0.00 16885.0 16864.4   20.64
   15 139    63       0   31834  310598       0  310598  309902   696.1    0.00  1073.8 16884.7    0.00 16884.7 16864.1   20.58
   15 140    64       0   31834  310586       0  310586  309898   688.5    0.00  1073.8 16884.4    0.00 16884.4 16863.9   20.51
   15 141    65       0   31833  310576       0  310576  309894   682.2    0.00  1073.8 16884.1    0.00 16884.1 16863.6   20.45
   15 142    66       0   31833  310566       0  310566  309890   675.9    0.00  1073.8 16883.8    0.00 16883.8 16863.4   20.39
   15 143    67       0   31833  310557       0  310557  309887   669.9    0.00  1073.8 16883.5    0.00 16883.5 16863.2   20.33
   15 144    68       0   31833  310549       0  310549  309884   664.8    0.00  1073.8 16883.3    0.00 16883.3 16863.0   20.27
   15 145    69       0   31833  310541       0  310541  309881   660.1    0.00  1073.8 16883.1    0.00 16883.1 16862.9   20.22
   15 146    70       0   31833  310532       0  310532  309878   654.5    0.00  1073.8 16882.8    0.00 16882.8 16862.7   20.16
   15 147    71       0   31833  310523       0  310523  309874   648.6    0.00  1073.8 16882.6    0.00 16882.6 16862.5   20.09
   15 148    72       0   31833  310513       0  310513  309870   642.9    0.00  1073.8 16882.3    0.00 16882.3 16862.3   20.02
   15 149    73       0   31833  310504       0  310504  309867   637.1    0.00  1073.8 16882.0    0.00 16882.0 16862.0   19.95
   15 150    74       0   31832  310493       0  310493  309863   630.9    0.00  1073.8 16881.7    0.00 16881.7 16861.8   19.87
   15 151    75       0   31832  310483       0  310483  309858   624.7    0.00  1073.8 16881.3    0.00 16881.3 16861.6   19.79
   15 152    76       0   31832  310472       0  310472  309854   618.1    0.00  1073.8 16881.0    0.00 16881.0 16861.3   19.70
   15 153    77       0   31832  310458       0  310458  309848   610.2    0.00  1073.7 16880.6    0.00 16880.6 16861.0   19.59
   15 154    78       0   31831  310443       0  310443  309842   601.6    0.00  1073.7 16880.1    0.00 16880.1 16860.6   19.47
   15 155    79       0   31831  310427       0  310427  309834   593.0    0.00  1073.7 16879.6    0.00 16879.6 16860.2   19.34
   15 156    80       0   31831  310411       0  310411  309827   584.6    0.00  1073.7 16879.0    0.00 16879.0 16859.8   19.21
   15 157    81       0   31830  310394       0  310394  309818   576.2    0.00  1073.7 16878.4    0.00 16878.4 16859.3   19.08
   15 158    82       0   31830  310376       0  310376  309809   566.8    0.00  1073.7 16877.8    0.00 16877.8 16858.8   18.93
   15 159    83       0   31829  310359       0  310359  309800   558.2    0.00  1073.7 16877.1    0.00 16877.1 16858.3   18.79
   15 160    84       0   31829  310339       0  310339  309792   547.0    0.00  1073.6 16876.5    0.00 16876.5 16857.9   18.59
   15 161    85       0   31828  310321       0  310321  309784   536.6    0.00  1073.6 16875.8    0.00 16875.8 16857.4   18.40
   15 162    86       0   31828  310305       0  310305  309778   527.3    0.00  1073.6 16875.3    0.00 16875.3 16857.1   18.22
   15 163    87       0   31828  310290       0  310290  309771   518.7    0.00  1073.6 16874.8    0.00 16874.8 16856.7   18.05
   15 164    88       0   31827  310276       0  310276  309765   510.9    0.00  1073.6 16874.2    0.00 16874.2 16856.3   17.90
   15 165    89       0   31827  310261       0  310261  309758   503.1    0.00  1073.6 16873.7    0.00 16873.7 16856.0   17.74
   15 166    90       0   31826  310245       0  310245  309750   495.4    0.00  1073.6 16873.1    0.00 16873.1 16855.5   17.58
   15 167    91       0   31826  310230       0  310230  309742   487.9    0.00  1073.6 16872.5    0.00 16872.5 16855.1   17.42
   15 168    92       0   31825  310214       0  310214  309734   479.8    0.00  1073.6 16871.9    0.00 16871.9 16854.7   17.25
   15 169    93       0   31825  310199       0  310199  309727   472.1    0.00  1073.5 16871.4    0.00 16871.4 16854.3   17.08
   15 170    94       0   31824  310187       0  310187  309721   466.1    0.00  1073.5 16870.9    0.00 16870.9 16853.9   16.94
   15 171    95       0   31824  310175       0  310175  309715   460.5    0.00  1073.5 16870.4    0.00 16870.4 16853.6   16.81
   15 172    96       0   31824  310165       0  310165  309710   455.1    0.00  1073.5 16870.0    0.00 16870.0 16853.3   16.69
   15 173    97       0   31823  310155       0  310155  309705   450.0    0.00  1073.5 16869.6    0.00 16869.6 16853.1   16.57
   15 174    98       0   31823  310145       0  310145  309699   445.3    0.00  1073.5 16869.2    0.00 16869.2 16852.8   16.46
   15 175    99       0   31823  310135       0  310135  309694   440.7    0.00  1073.5 16868.8    0.00 16868.8 16852.5   16.35
   15 176   100       0   31822  310125       0  310125  309689   435.7    0.00  1073.5 16868.4    0.00 16868.4 16852.2   16.22
   15 177   101       0   31822  310114       0  310114  309683   430.4    0.00  1073.5 16868.0    0.00 16868.0 16851.9   16.09
   15 178   102       0   31822  310102       0  310102  309677   425.2    0.00  1073.4 16867.5    0.00 16867.5 16851.6   15.96
   15 179   103       0   31821  310091       0  310091  309671   420.2    0.00  1073.4 16867.1    0.00 16867.1 16851.2   15.84
   15 180   104       0   31821  310079       0  310079  309664   415.1    0.00  1073.4 16866.6    0.00 16866.6 16850.9   15.71
   15 181   105       0   31820  310066       0  310066  309656   409.9    0.00  1073.4 16866.0    0.00 16866.0 16850.4   15.57
   15 182   106       0   31819  310053       0  310053  309648   404.7    0.00  1073.4 16865.4    0.00 16865.4 16850.0   15.44
   15 183   107       0   31819  310039       0  310039  309639   399.9    0.00  1073.4 16864.8    0.00 16864.8 16849.5   15.31
   15 184   108       0   31818  310025       0  310025  309630   395.4    0.00  1073.3 16864.2    0.00 16864.2 16849.0   15.19
   15 185   109       0   31817  310012       0  310012  309621   391.1    0.00  1073.3 16863.6    0.00 16863.6 16848.5   15.08
   15 186   110       0   31816  309998       0  309998  309611   387.1    0.00  1073.3 16863.0    0.00 16863.0 16848.0   14.97
   15 187   111       0   31816  309985       0  309985  309602   383.4    0.00  1073.3 16862.3    0.00 16862.3 16847.5   14.88
   15 188   112       0   31815  309973       0  309973  309593   380.1    0.00  1073.2 16861.7    0.00 16861.7 16846.9   14.79
   15 189   113       0   31814  309959       0  309959  309583   375.9    0.00  1073.2 16861.1    0.00 16861.1 16846.4   14.67
   15 190   114       0   31814  309945       0  309945  309574   370.8    0.00  1073.2 16860.4    0.00 16860.4 16845.9   14.53
   15 191   115       0   31813  309933       0  309933  309567   366.6    0.00  1073.2 16859.8    0.00 16859.8 16845.4   14.42
   15 192   116       0   31813  309923       0  309923  309560   363.4    0.00  1073.2 16859.4    0.00 16859.4 16845.0   14.32
   15 193   117       0   31812  309915       0  309915  309554   360.9    0.00  1073.2 16858.9    0.00 16858.9 16844.7   14.25
   15 194   118       0   31812  309907       0  309907  309548   359.0    0.00  1073.1 16858.5    0.00 16858.5 16844.3   14.20
   15 195   119       0   31811  309900       0  309900  309543   357.1    0.00  1073.1 16858.2    0.00 16858.2 16844.0   14.15
   15 196   120       0   31811  309892       0  309892  309537   355.3    0.00  1073.1 16857.8    0.00 16857.8 16843.7   14.09
   15 197   121       0   31810  309884       0  309884  309531   353.5    0.00  1073.1 16857.3    0.00 16857.3 16843.3   14.04
   15 198   122       0   31810  309876       0  309876  309525   351.9    0.00  1073.1 16856.9    0.00 16856.9 16842.9   14.00
   15 199   123       0   31810  309869       0  309869  309518   350.4    0.00  1073.1 16856.5    0.00 16856.5 16842.5   13.96
   15 200   124       0   31809  309861       0  309861  309512   349.2    0.00  1073.1 16856.1    0.00 16856.1 16842.1   13.92
   15 201   125       0   31809  309854       0  309854  309506   348.2    0.00  1073.0 16855.6    0.00 16855.6 16841.8   13.89
   15 202   126       0   31808  309847       0  309847  309500   347.3    0.00  1073.0 16855.2    0.00 16855.2 16841.4   13.86
   15 203   127       0   31808  309840       0  309840  309494   346.5    0.00  1073.0 16854.8    0.00 16854.8 16841.0   13.84
   15 204   128       0   31807  309834       0  309834  309488   345.9    0.00  1073.0 16854.4    0.00 16854.4 16840.6   13.82
   15 205   129       0   31807  309828       0  309828  309483   345.1    0.00  1073.0 16854.1    0.00 16854.1 16840.3   13.80
   15 206   130       0   31807  309822       0  309822  309477   344.5    0.00  1073.0 16853.7    0.00 16853.7 16839.9   13.79
   15 207   131       0   31806  309816       0  309816  309472   344.0    0.00  1073.0 16853.4    0.00 16853.4 16839.6   13.77
   15 208   132       0   31806  309811       0  309811  309468   343.7    0.00  1072.9 16853.1    0.00 16853.1 16839.3   13.76
   15 209   133       0   31806  309806       0  309806  309464   342.8    0.00  1072.9 16852.8    0.00 16852.8 16839.0   13.74
   15 210   134       0   31805  309802       0  309802  309460   342.1    0.00  1072.9 16852.5    0.00 16852.5 16838.8   13.71
   15 211   135       0   31805  309797       0  309797  309456   341.5    0.00  1072.9 16852.2    0.00 16852.2 16838.5   13.70
   15 212   136       0   31805  309794       0  309794  309453   341.1    0.00  1072.9 16852.0    0.00 16852.0 16838.3   13.68
   15 213   137       0   31805  309790       0  309790  309449   340.7    0.00  1072.9 16851.8    0.00 16851.8 16838.1   13.67
   15 214   138       0   31804  309786       0  309786  309446   340.4    0.00  1072.9 16851.5    0.00 16851.5 16837.9   13.66
   15 215   139       0   31804  309783       0  309783  309442   340.1    0.00  1072.9 16851.3    0.00 16851.3 16837.7   13.65
   15 216   140       0   31804  309779       0  309779  309439   339.8    0.00  1072.9 16851.1    0.00 16851.1 16837.4   13.64
   15 217   141       0   31803  309774       0  309774  309435   339.5    0.00  1072.9 16850.8    0.00 16850.8 16837.2   13.63
   15 218   142       0   31803  309770       0  309770  309431   339.2    0.00  1072.9 16850.5    0.00 16850.5 16836.9   13.63
   15 219   143       0   31803  309765       0  309765  309426   338.9    0.00  1072.8 16850.2    0.00 16850.2 16836.6   13.62
   15 220   144       0   31802  309760       0  309760  309421   338.7    0.00  1072.8 16849.9    0.00 16849.9 16836.3   13.61
   15 221   145       0   31802  309754       0  309754  309416   338.3    0.00  1072.8 16849.5    0.00 16849.5 16835.9   13.60
   15 222   146       0   31802  309749       0  309749  309411   337.9    0.00  1072.8 16849.2    0.00 16849.2 16835.6   13.58
   15 223   147       0   31801  309743       0  309743  309405   337.6    0.00  1072.8 16848.8    0.00 16848.8 16835.2   13.57
   15 224   148       0   31801  309737       0  309737  309400   337.3    0.00  1072.8 16848.5    0.00 16848.5 16834.9   13.56
   15 225   149       0   31800  309731       0  309731  309394   337.0    0.00  1072.8 16848.1    0.00 16848.1 16834.5   13.55
   15 226   150       0   31800  309726       0  309726  309389   336.7    0.00  1072.7 16847.7    0.00 16847.7 16834.2   13.54
   15 227   151       0   31800  309719       0  309719  309383   335.6    0.00  1072.7 16847.3    0.00 16847.3 16833.8   13.51
   15 228   152       0   31799  309713       0  309713  309378   334.7    0.00  1072.7 16847.0    0.00 16847.0 16833.5   13.48
   15 229   153       0   31799  309706       0  309706  309373   332.8    0.00  1072.7 16846.6    0.00 16846.6 16833.2   13.42
   15 230   154       0   31798  309699       0  309699  309368   331.1    0.00  1072.7 16846.2    0.00 16846.2 16832.9   13.37
   15 231   155       0   31798  309693       0  309693  309364   329.4    0.00  1072.7 16845.9    0.00 16845.9 16832.6   13.31
   15 232   156       0   31798  309688       0  309688  309360   328.1    0.00  1072.7 16845.6    0.00 16845.6 16832.3   13.27
   15 233   157       0   31797  309683       0  309683  309356   326.9    0.00  1072.6 16845.3    0.00 16845.3 16832.1   13.23
   15 234   158       0   31797  309678       0  309678  309352   326.0    0.00  1072.6 16845.1    0.00 16845.1 16831.9   13.20
   15 235   159       0   31797  309674       0  309674  309348   325.0    0.00  1072.6 16844.8    0.00 16844.8 16831.6   13.17
   15 236   160       0   31796  309668       0  309668  309344   323.9    0.00  1072.6 16844.5    0.00 16844.5 16831.3   13.13
   15 237   161       0   31796  309660       0  309660  309340   320.5    0.00  1072.6 16844.1    0.00 16844.1 16831.1   13.02

*DSSAT Cropping System Model Ver. 4.8.5.000 -release  NOV 27, 2025 15:48:13

*RUN   2        : 2                         WHAPS048 TUDU1501    2
 MODEL          : WHAPS048 - Wheat
 EXPERIMENT     : TUDU1501 WH
 DATA PATH      :
 TREATMENT  2   : 2                         WHAPS048
  
@YEAR DOY   DAS    OMAC    SCDD    SOCD    SC0D    SCTD   SOMCT    LCTD    ONAC    SNDD    SOND    SN0D    SNTD   SOMNT    LNTD
   15 076     0       0   31829  311106       0  311106  310026  1080.0    0.00  1073.9 16892.2    0.00 16892.2 16872.7   19.50
   15 077     1       0   31551  311093       0  311093  310024  1069.3    0.00  1063.2 16892.2    0.00 16892.2 16872.5   19.65
   15 078     2       0   31551  311083       0  311083  310022  1060.4    0.00  1063.2 16892.1    0.00 16892.1 16872.4   19.78
   15 079     3       0   31552  311074       0  311074  310021  1053.4    0.00  1063.2 16892.1    0.00 16892.1 16872.2   19.87
   15 080     4       0   31562  311069       0  311069  310020  1048.6    0.00  1063.6 16892.1    0.00 16892.1 16872.2   19.93
   15 081     5       0   31562  311065       0  311065  310019  1045.5    0.00  1063.6 16892.1    0.00 16892.1 16872.1   19.97
   15 082     6       0   31562  311064       0  311064  310019  1044.9    0.00  1063.6 16892.1    0.00 16892.1 16872.1   19.98
   15 083     7       0   31562  311064       0  311064  310019  1044.8    0.00  1063.6 16892.0    0.00 16892.0 16872.1   19.98
   15 084     8       0   31562  311064       0  311064  310019  1044.8    0.00  1063.6 16892.0    0.00 16892.0 16872.1   19.98
   15 085     9       0   31562  311063       0  311063  310019  1044.3    0.00  1063.6 16892.0    0.00 16892.0 16872.0   19.99
   15 086    10       0   31567  311062       0  311062  310019  1043.8    0.00  1063.8 16892.0    0.00 16892.0 16872.0   20.00
   15 087    11       0   31567  311061       0  311061  310018  1042.4    0.00  1063.8 16892.0    0.00 16892.0 16872.0   20.02
   15 088    12       0   31567  311058       0  311058  310017  1040.2    0.00  1063.8 16892.0    0.00 16892.0 16871.9   20.05
   15 089    13       0   31599  311054       0  311054  310017  1037.2    0.00  1065.0 16891.9    0.00 16891.9 16871.9   20.09
   15 090    14       0   31612  311051       0  311051  310016  1034.4    0.00  1065.5 16891.9    0.00 16891.9 16871.8   20.12
   15 091    15       0   31624  311047       0  311047  310015  1031.1    0.00  1066.0 16891.9    0.00 16891.9 16871.7   20.16
   15 092    16       0   31639  311044       0  311044  310015  1028.8    0.00  1066.5 16891.9    0.00 16891.9 16871.7   20.18
   15 093    17       0   31639  311042       0  311042  310015  1027.8    0.00  1066.5 16891.9    0.00 16891.9 16871.7   20.20
   15 094    18       0   31653  311042       0  311042  310015  1027.8    0.00  1067.1 16891.9    0.00 16891.9 16871.7   20.20
   15 095    19       0   31653  311042       0  311042  310015  1027.7    0.00  1067.1 16891.9    0.00 16891.9 16871.7   20.20
   15 096    20       0   31653  311042       0  311042  310015  1027.7    0.00  1067.1 16891.9    0.00 16891.9 16871.7   20.20
   15 097    21       0   31653  311042       0  311042  310015  1027.7    0.00  1067.1 16891.9    0.00 16891.9 16871.7   20.20
   15 098    22       0   31653  311042       0  311042  310015  1027.7    0.00  1067.1 16891.9    0.00 16891.9 16871.7   20.20
   15 099    23       0   31653  311042       0  311042  310015  1027.7    0.00  1067.1 16891.9    0.00 16891.9 16871.7   20.20
   15 100    24       0   31653  311042       0  311042  310015  1027.7    0.00  1067.1 16891.9    0.00 16891.9 16871.7   20.20
   15 101    25       0   31653  311039       0  311039  310014  1025.1    0.00  1067.1 16891.8    0.00 16891.8 16871.6   20.23
   15 102    26       0   31653  311032       0  311032  310013  1019.3    0.00  1067.1 16891.8    0.00 16891.8 16871.5   20.29
   15 103    27       0   31654  311022       0  311022  310011  1010.9    0.00  1067.1 16891.8    0.00 16891.8 16871.4   20.38
   15 104    28       0   31654  311010       0  311010  310009  1001.3    0.00  1067.1 16891.7    0.00 16891.7 16871.2   20.48
   15 105    29       0   31654  310998       0  310998  310007   991.7    0.00  1067.1 16891.6    0.00 16891.6 16871.0   20.58
   15 106    30       0   31654  310986       0  310986  310004   981.8    0.00  1067.1 16891.5    0.00 16891.5 16870.8   20.67
   15 107    31       0   31719  310972       0  310972  310001   971.5    0.00  1069.6 16891.3    0.00 16891.3 16870.6   20.76
   15 108    32       0   31720  310956       0  310956  309998   958.4    0.00  1069.6 16891.2    0.00 16891.2 16870.4   20.86
   15 109    33       0   31720  310943       0  310943  309996   946.5    0.00  1069.6 16891.1    0.00 16891.1 16870.2   20.93
   15 110    34       0   31721  310931       0  310931  309994   936.6    0.00  1069.6 16891.0    0.00 16891.0 16870.1   20.98
   15 111    35       0   31721  310922       0  310922  309993   929.3    0.00  1069.6 16891.0    0.00 16891.0 16870.0   21.01
   15 112    36       0   31721  310916       0  310916  309992   924.2    0.00  1069.6 16890.9    0.00 16890.9 16869.9   21.03
   15 113    37       0   31721  310910       0  310910  309991   919.4    0.00  1069.6 16890.8    0.00 16890.8 16869.8   21.05
   15 114    38       0   31721  310904       0  310904  309990   914.6    0.00  1069.6 16890.8    0.00 16890.8 16869.7   21.07
   15 115    39       0   31723  310897       0  310897  309988   909.1    0.00  1069.7 16890.7    0.00 16890.7 16869.6   21.10
   15 116    40       0   31726  310889       0  310889  309986   902.9    0.00  1069.8 16890.6    0.00 16890.6 16869.4   21.12
   15 117    41       0   31736  310880       0  310880  309984   895.4    0.00  1070.1 16890.4    0.00 16890.4 16869.3   21.15
   15 118    42       0   31747  310868       0  310868  309982   885.9    0.00  1070.5 16890.3    0.00 16890.3 16869.1   21.17
   15 119    43       0   31747  310855       0  310855  309979   875.5    0.00  1070.5 16890.1    0.00 16890.1 16868.9   21.19
   15 120    44       0   31749  310843       0  310843  309977   865.5    0.00  1070.6 16890.0    0.00 16890.0 16868.8   21.20
   15 121    45       0   31787  310831       0  310831  309975   856.0    0.00  1072.1 16889.8    0.00 16889.8 16868.6   21.20
   15 122    46       0   31788  310823       0  310823  309973   850.1    0.00  1072.1 16889.7    0.00 16889.7 16868.5   21.20
   15 123    47       0   31835  310817       0  310817  309972   845.1    0.00  1073.9 16889.6    0.00 16889.6 16868.4   21.20
   15 124    48       0   31835  310809       0  310809  309970   839.4    0.00  1073.9 16889.4    0.00 16889.4 16868.2   21.20
   15 125    49       0   31835  310797       0  310797  309967   830.2    0.00  1073.9 16889.2    0.00 16889.2 16868.0   21.19
   15 126    50       0   31835  310782       0  310782  309963   819.1    0.00  1073.9 16889.0    0.00 16889.0 16867.8   21.18
   15 127    51       0   31835  310768       0  310768  309959   809.1    0.00  1073.9 16888.7    0.00 16888.7 16867.5   21.17
   15 128    52       0   31835  310752       0  310752  309954   797.4    0.00  1073.9 16888.4    0.00 16888.4 16867.2   21.14
   15 129    53       0   31835  310735       0  310735  309950   784.8    0.00  1073.9 16888.1    0.00 16888.1 16867.0   21.10
   15 130    54       0   31835  310719       0  310719  309945   773.8    0.00  1073.9 16887.7    0.00 16887.7 16866.7   21.06
   15 131    55       0   31835  310706       0  310706  309942   764.5    0.00  1073.9 16887.5    0.00 16887.5 16866.4   21.02
   15 132    56       0   31835  310693       0  310693  309937   755.6    0.00  1073.9 16887.2    0.00 16887.2 16866.2   20.98
   15 133    57       0   31835  310679       0  310679  309932   746.3    0.00  1073.9 16886.8    0.00 16886.8 16865.9   20.94
   15 134    58       0   31835  310663       0  310663  309927   736.2    0.00  1073.9 16886.4    0.00 16886.4 16865.6   20.88
   15 135    59       0   31835  310649       0  310649  309922   726.9    0.00  1073.9 16886.1    0.00 16886.1 16865.3   20.82
   15 136    60       0   31834  310635       0  310635  309917   718.2    0.00  1073.8 16885.7    0.00 16885.7 16864.9   20.76
   15 137    61       0   31834  310621       0  310621  309911   709.9    0.00  1073.8 16885.3    0.00 16885.3 16864.6   20.69
   15 138    62       0   31834  310609       0  310609  309907   702.2    0.00  1073.8 16885.0    0.00 16885.0 16864.4   20.63
   15 139    63       0   31834  310598       0  310598  309902   695.5    0.00  1073.8 16884.7    0.00 16884.7 16864.1   20.58
   15 140    64       0   31834  310586       0  310586  309898   687.9    0.00  1073.8 16884.4    0.00 16884.4 16863.9   20.50
   15 141    65       0   31833  310575       0  310575  309894   681.5    0.00  1073.8 16884.1    0.00 16884.1 16863.6   20.45
   15 142    66       0   31833  310565       0  310565  309890   675.3    0.00  1073.8 16883.8    0.00 16883.8 16863.4   20.38
   15 143    67       0   31833  310556       0  310556  309887   669.2    0.00  1073.8 16883.5    0.00 16883.5 16863.2   20.32
   15 144    68       0   31833  310548       0  310548  309884   664.1    0.00  1073.8 16883.3    0.00 16883.3 16863.0   20.26
   15 145    69       0   31833  310541       0  310541  309881   659.4    0.00  1073.8 16883.1    0.00 16883.1 16862.9   20.21
   15 146    70       0   31833  310532       0  310532  309878   653.8    0.00  1073.8 16882.8    0.00 16882.8 16862.7   20.15
   15 147    71       0   31833  310522       0  310522  309874   647.9    0.00  1073.8 16882.5    0.00 16882.5 16862.5   20.08
   15 148    72       0   31833  310513       0  310513  309871   642.1    0.00  1073.8 16882.3    0.00 16882.3 16862.3   20.01
   15 149    73       0   31833  310503       0  310503  309867   636.3    0.00  1073.8 16882.0    0.00 16882.0 16862.0   19.94
   15 150    74       0   31832  310493       0  310493  309863   630.2    0.00  1073.8 16881.7    0.00 16881.7 16861.8   19.86
   15 151    75       0   31832  310482       0  310482  309859   624.0    0.00  1073.8 16881.3    0.00 16881.3 16861.6   19.78
   15 152    76       0   31832  310471       0  310471  309854   617.4    0.00  1073.8 16881.0    0.00 16881.0 16861.3   19.69
   15 153    77       0   31832  310458       0  310458  309848   609.5    0.00  1073.8 16880.6    0.00 16880.6 16861.0   19.58
   15 154    78       0   31831  310443       0  310443  309842   600.9    0.00  1073.7 16880.1    0.00 16880.1 16860.6   19.45
   15 155    79       0   31831  310427       0  310427  309835   592.3    0.00  1073.7 16879.5    0.00 16879.5 16860.2   19.33
   15 156    80       0   31831  310411       0  310411  309827   583.9    0.00  1073.7 16879.0    0.00 16879.0 16859.8   19.20
   15 157    81       0   31830  310394       0  310394  309818   575.6    0.00  1073.7 16878.4    0.00 16878.4 16859.3   19.07
   15 158    82       0   31830  310376       0  310376  309810   566.3    0.00  1073.7 16877.8    0.00 16877.8 16858.8   18.92
   15 159    83       0   31829  310358       0  310358  309801   557.8    0.00  1073.7 16877.1    0.00 16877.1 16858.3   18.78
   15 160    84       0   31829  310339       0  310339  309792   546.7    0.00  1073.7 16876.5    0.00 16876.5 16857.9   18.59
   15 161    85       0   31828  310321       0  310321  309785   536.3    0.00  1073.6 16875.8    0.00 16875.8 16857.5   18.39
   15 162    86       0   31828  310305       0  310305  309778   527.1    0.00  1073.6 16875.3    0.00 16875.3 16857.1   18.22
   15 163    87       0   31828  310290       0  310290  309772   518.8    0.00  1073.6 16874.8    0.00 16874.8 16856.7   18.05
   15 164    88       0   31827  310276       0  310276  309765   511.1    0.00  1073.6 16874.3    0.00 16874.3 16856.4   17.90
   15 165    89       0   31827  310262       0  310262  309758   503.4    0.00  1073.6 16873.7    0.00 16873.7 16856.0   17.74
   15 166    90       0   31826  310246       0  310246  309750   495.8    0.00  1073.6 16873.1    0.00 16873.1 16855.6   17.59
   15 167    91       0   31826  310231       0  310231  309742   488.3    0.00  1073.6 16872.5    0.00 16872.5 16855.1   17.43
   15 168    92       0   31825  310215       0  310215  309735   480.2    0.00  1073.6 16871.9    0.00 16871.9 16854.7   17.25
   15 169    93       0   31825  310200       0  310200  309728   472.5    0.00  1073.5 16871.4    0.00 16871.4 16854.3   17.08
   15 170    94       0   31824  310188       0  310188  309721   466.5    0.00  1073.5 16870.9    0.00 16870.9 16854.0   16.95
   15 171    95       0   31824  310177       0  310177  309716   460.9    0.00  1073.5 16870.5    0.00 16870.5 16853.7   16.82
   15 172    96       0   31824  310166       0  310166  309710   455.6    0.00  1073.5 16870.1    0.00 16870.1 16853.4   16.70
   15 173    97       0   31823  310156       0  310156  309705   450.4    0.00  1073.5 16869.7    0.00 16869.7 16853.1   16.58
   15 174    98       0   31823  310146       0  310146  309700   445.8    0.00  1073.5 16869.3    0.00 16869.3 16852.8   16.47
   15 175    99       0   31823  310136       0  310136  309695   441.1    0.00  1073.5 16868.9    0.00 16868.9 16852.5   16.35
   15 176   100       0   31822  310126       0  310126  309690   436.1    0.00  1073.5 16868.5    0.00 16868.5 16852.2   16.23
   15 177   101       0   31822  310115       0  310115  309684   430.9    0.00  1073.5 16868.0    0.00 16868.0 16851.9   16.10
   15 178   102       0   31822  310104       0  310104  309678   425.6    0.00  1073.4 16867.6    0.00 16867.6 16851.6   15.97
   15 179   103       0   31821  310092       0  310092  309672   420.6    0.00  1073.4 16867.1    0.00 16867.1 16851.3   15.85
   15 180   104       0   31821  310080       0  310080  309665   415.5    0.00  1073.4 16866.6    0.00 16866.6 16850.9   15.72
   15 181   105       0   31820  310067       0  310067  309657   410.2    0.00  1073.4 16866.1    0.00 16866.1 16850.5   15.58
   15 182   106       0   31819  310054       0  310054  309649   405.0    0.00  1073.4 16865.5    0.00 16865.5 16850.0   15.44
   15 183   107       0   31819  310040       0  310040  309640   400.1    0.00  1073.4 16864.9    0.00 16864.9 16849.5   15.32
   15 184   108       0   31818  310026       0  310026  309631   395.5    0.00  1073.3 16864.3    0.00 16864.3 16849.1   15.20
   15 185   109       0   31817  310013       0  310013  309622   391.2    0.00  1073.3 16863.6    0.00 16863.6 16848.6   15.08
   15 186   110       0   31816  309999       0  309999  309612   387.2    0.00  1073.3 16863.0    0.00 16863.0 16848.0   14.98
   15 187   111       0   31816  309986       0  309986  309603   383.4    0.00  1073.3 16862.4    0.00 16862.4 16847.5   14.88
   15 188   112       0   31815  309974       0  309974  309593   380.1    0.00  1073.2 16861.7    0.00 16861.7 16847.0   14.79
   15 189   113       0   31814  309960       0  309960  309584   375.9    0.00  1073.2 16861.1    0.00 16861.1 16846.4   14.67
   15 190   114       0   31814  309946       0  309946  309575   370.9    0.00  1073.2 16860.4    0.00 16860.4 16845.9   14.53
   15 191   115       0   31813  309934       0  309934  309568   366.7    0.00  1073.2 16859.9    0.00 16859.9 16845.5   14.41
   15 192   116       0   31813  309924       0  309924  309561   363.4    0.00  1073.2 16859.4    0.00 16859.4 16845.1   14.32
   15 193   117       0   31812  309916       0  309916  309555   360.9    0.00  1073.1 16859.0    0.00 16859.0 16844.7   14.25
   15 194   118       0   31812  309908       0  309908  309549   359.0    0.00  1073.1 16858.6    0.00 16858.6 16844.4   14.20
   15 195   119       0   31811  309901       0  309901  309544   357.1    0.00  1073.1 16858.2    0.00 16858.2 16844.1   14.14
   15 196   120       0   31811  309893       0  309893  309538   355.3    0.00  1073.1 16857.8    0.00 16857.8 16843.7   14.09
   15 197   121       0   31810  309886       0  309886  309532   353.5    0.00  1073.1 16857.4    0.00 16857.4 16843.3   14.04
   15 198   122       0   31810  309878       0  309878  309526   351.9    0.00  1073.1 16857.0    0.00 16857.0 16843.0   13.99
   15 199   123       0   31810  309870       0  309870  309520   350.4    0.00  1073.1 16856.5    0.00 16856.5 16842.6   13.95
   15 200   124       0   31809  309863       0  309863  309514   349.3    0.00  1073.1 16856.1    0.00 16856.1 16842.2   13.92
   15 201   125       0   31809  309856       0  309856  309507   348.2    0.00  1073.0 16855.7    0.00 16855.7 16841.8   13.89
   15 202   126       0   31808  309849       0  309849  309502   347.3    0.00  1073.0 16855.3    0.00 16855.3 16841.4   13.86
   15 203   127       0   31808  309842       0  309842  309496   346.6    0.00  1073.0 16854.9    0.00 16854.9 16841.1   13.84
   15 204   128       0   31807  309836       0  309836  309490   346.0    0.00  1073.0 16854.5    0.00 16854.5 16840.7   13.82
   15 205   129       0   31807  309830       0  309830  309484   345.3    0.00  1073.0 16854.2    0.00 16854.2 16840.4   13.80
   15 206   130       0   31807  309824       0  309824  309479   344.7    0.00  1073.0 16853.8    0.00 16853.8 16840.0   13.79
   15 207   131       0   31806  309818       0  309818  309474   344.2    0.00  1073.0 16853.5    0.00 16853.5 16839.7   13.77
   15 208   132       0   31806  309814       0  309814  309470   343.8    0.00  1072.9 16853.2    0.00 16853.2 16839.4   13.76
   15 209   133       0   31806  309809       0  309809  309466   343.0    0.00  1072.9 16852.9    0.00 16852.9 16839.1   13.74
   15 210   134       0   31805  309804       0  309804  309462   342.3    0.00  1072.9 16852.6    0.00 16852.6 16838.9   13.72
   15 211   135       0   31805  309800       0  309800  309458   341.7    0.00  1072.9 16852.3    0.00 16852.3 16838.6   13.70
   15 212   136       0   31805  309796       0  309796  309454   341.3    0.00  1072.9 16852.1    0.00 16852.1 16838.4   13.69
   15 213   137       0   31804  309792       0  309792  309451   340.9    0.00  1072.9 16851.9    0.00 16851.9 16838.2   13.67
   15 214   138       0   31804  309788       0  309788  309448   340.5    0.00  1072.9 16851.6    0.00 16851.6 16838.0   13.66
   15 215   139       0   31804  309785       0  309785  309444   340.2    0.00  1072.9 16851.4    0.00 16851.4 16837.8   13.65
   15 216   140       0   31804  309781       0  309781  309441   339.9    0.00  1072.9 16851.2    0.00 16851.2 16837.5   13.64
   15 217   141       0   31803  309776       0  309776  309437   339.6    0.00  1072.9 16850.9    0.00 16850.9 16837.3   13.64
   15 218   142       0   31803  309772       0  309772  309432   339.4    0.00  1072.9 16850.6    0.00 16850.6 16837.0   13.63
   15 219   143       0   31803  309767       0  309767  309428   339.1    0.00  1072.8 16850.3    0.00 16850.3 16836.7   13.62
   15 220   144       0   31802  309762       0  309762  309423   338.8    0.00  1072.8 16850.0    0.00 16850.0 16836.4   13.61
   15 221   145       0   31802  309756       0  309756  309418   338.4    0.00  1072.8 16849.6    0.00 16849.6 16836.0   13.60
   15 222   146       0   31802  309750       0  309750  309412   338.0    0.00  1072.8 16849.3    0.00 16849.3 16835.7   13.58
   15 223   147       0   31801  309745       0  309745  309407   337.7    0.00  1072.8 16848.9    0.00 16848.9 16835.3   13.57
   15 224   148       0   31801  309739       0  309739  309401   337.4    0.00  1072.8 16848.5    0.00 16848.5 16835.0   13.56
   15 225   149       0   31800  309733       0  309733  309396   337.1    0.00  1072.8 16848.2    0.00 16848.2 16834.6   13.55
   15 226   150       0   31800  309727       0  309727  309391   336.8    0.00  1072.7 16847.8    0.00 16847.8 16834.3   13.55
   15 227   151       0   31800  309721       0  309721  309385   335.7    0.00  1072.7 16847.4    0.00 16847.4 16833.9   13.51
   15 228   152       0   31799  309714       0  309714  309380   334.8    0.00  1072.7 16847.1    0.00 16847.1 16833.6   13.48
   15 229   153       0   31799  309707       0  309707  309374   332.9    0.00  1072.7 16846.7    0.00 16846.7 16833.2   13.42
   15 230   154       0   31798  309701       0  309701  309370   331.2    0.00  1072.7 16846.3    0.00 16846.3 16832.9   13.37
   15 231   155       0   31798  309695       0  309695  309365   329.5    0.00  1072.7 16846.0    0.00 16846.0 16832.7   13.31
   15 232   156       0   31797  309689       0  309689  309361   328.2    0.00  1072.7 16845.7    0.00 16845.7 16832.4   13.27
   15 233   157       0   31797  309685       0  309685  309357   327.1    0.00  1072.6 16845.4    0.00 16845.4 16832.2   13.23
   15 234   158       0   31797  309680       0  309680  309354   326.1    0.00  1072.6 16845.1    0.00 16845.1 16831.9   13.20
   15 235   159       0   31796  309675       0  309675  309350   325.2    0.00  1072.6 16844.9    0.00 16844.9 16831.7   13.17
   15 236   160       0   31796  309670       0  309670  309346   324.1    0.00  1072.6 16844.6    0.00 16844.6 16831.4   13.14
   15 237   161       0   31795  309662       0  309662  309341   320.6    0.00  1072.6 16844.2    0.00 16844.2 16831.1   13.02

*DSSAT Cropping System Model Ver. 4.8.5.000 -release  NOV 27, 2025 15:48:13

*RUN   3        : 3                         WHAPS048 TUDU1501    3
 MODEL          : WHAPS048 - Wheat
 EXPERIMENT     : TUDU1501 WH
 DATA PATH      :
 TREATMENT  3   : 3                         WHAPS048
  
@YEAR DOY   DAS    OMAC    SCDD    SOCD    SC0D    SCTD   SOMCT    LCTD    ONAC    SNDD    SOND    SN0D    SNTD   SOMNT    LNTD
   15 076     0       0   31829  311106       0  311106  310026  1080.0    0.00  1073.9 16892.2    0.00 16892.2 16872.7   19.50
   15 077     1       0   31551  311093       0  311093  310024  1069.3    0.00  1063.2 16892.2    0.00 16892.2 16872.5   19.65
   15 078     2       0   31551  311083       0  311083  310022  1060.4    0.00  1063.2 16892.1    0.00 16892.1 16872.4   19.78
   15 079     3       0   31552  311074       0  311074  310021  1053.4    0.00  1063.2 16892.1    0.00 16892.1 16872.2   19.87
   15 080     4       0   31562  311069       0  311069  310020  1048.6    0.00  1063.6 16892.1    0.00 16892.1 16872.2   19.93
   15 081     5       0   31562  311065       0  311065  310019  1045.5    0.00  1063.6 16892.1    0.00 16892.1 16872.1   19.97
   15 082     6       0   31562  311064       0  311064  310019  1044.9    0.00  1063.6 16892.1    0.00 16892.1 16872.1   19.98
   15 083     7       0   31562  311064       0  311064  310019  1044.8    0.00  1063.6 16892.0    0.00 16892.0 16872.1   19.98
   15 084     8       0   31562  311064       0  311064  310019  1044.8    0.00  1063.6 16892.0    0.00 16892.0 16872.1   19.98
   15 085     9       0   31562  311063       0  311063  310019  1044.3    0.00  1063.6 16892.0    0.00 16892.0 16872.0   19.99
   15 086    10       0   31567  311062       0  311062  310019  1043.8    0.00  1063.8 16892.0    0.00 16892.0 16872.0   20.00
   15 087    11       0   31567  311061       0  311061  310018  1042.4    0.00  1063.8 16892.0    0.00 16892.0 16872.0   20.02
   15 088    12       0   31567  311058       0  311058  310017  1040.2    0.00  1063.8 16892.0    0.00 16892.0 16871.9   20.05
   15 089    13       0   31599  311054       0  311054  310017  1037.2    0.00  1065.0 16891.9    0.00 16891.9 16871.9   20.09
   15 090    14       0   31612  311051       0  311051  310016  1034.4    0.00  1065.5 16891.9    0.00 16891.9 16871.8   20.12
   15 091    15       0   31624  311047       0  311047  310015  1031.1    0.00  1066.0 16891.9    0.00 16891.9 16871.7   20.16
   15 092    16       0   31639  311044       0  311044  310015  1028.8    0.00  1066.5 16891.9    0.00 16891.9 16871.7   20.18
   15 093    17       0   31639  311042       0  311042  310015  1027.8    0.00  1066.5 16891.9    0.00 16891.9 16871.7   20.20
   15 094    18       0   31653  311042       0  311042  310015  1027.8    0.00  1067.1 16891.9    0.00 16891.9 16871.7   20.20
   15 095    19       0   31653  311042       0  311042  310015  1027.7    0.00  1067.1 16891.9    0.00 16891.9 16871.7   20.20
   15 096    20       0   31653  311042       0  311042  310015  1027.7    0.00  1067.1 16891.9    0.00 16891.9 16871.7   20.20
   15 097    21       0   31653  311042       0  311042  310015  1027.7    0.00  1067.1 16891.9    0.00 16891.9 16871.7   20.20
   15 098    22       0   31653  311042       0  311042  310015  1027.7    0.00  1067.1 16891.9    0.00 16891.9 16871.7   20.20
   15 099    23       0   31653  311042       0  311042  310015  1027.7    0.00  1067.1 16891.9    0.00 16891.9 16871.7   20.20
   15 100    24       0   31653  311042       0  311042  310015  1027.7    0.00  1067.1 16891.9    0.00 16891.9 16871.7   20.20
   15 101    25       0   31653  311039       0  311039  310014  1025.2    0.00  1067.1 16891.8    0.00 16891.8 16871.6   20.23
   15 102    26       0   31653  311032       0  311032  310013  1019.6    0.00  1067.1 16891.8    0.00 16891.8 16871.5   20.29
   15 103    27       0   31653  311022       0  311022  310011  1011.5    0.00  1067.1 16891.8    0.00 16891.8 16871.4   20.38
   15 104    28       0   31654  311011       0  311011  310009  1002.3    0.00  1067.1 16891.7    0.00 16891.7 16871.2   20.48
   15 105    29       0   31654  310999       0  310999  310006   993.1    0.00  1067.1 16891.6    0.00 16891.6 16871.0   20.57
   15 106    30       0   31654  310987       0  310987  310003   983.5    0.00  1067.1 16891.5    0.00 16891.5 16870.8   20.67
   15 107    31       0   31719  310974       0  310974  310000   973.4    0.00  1069.6 16891.3    0.00 16891.3 16870.6   20.76
   15 108    32       0   31719  310960       0  310960  309997   962.4    0.00  1069.6 16891.2    0.00 16891.2 16870.4   20.85
   15 109    33       0   31720  310947       0  310947  309995   952.4    0.00  1069.6 16891.1    0.00 16891.1 16870.2   20.91
   15 110    34       0   31720  310937       0  310937  309993   944.1    0.00  1069.6 16891.0    0.00 16891.0 16870.0   20.97
   15 111    35       0   31720  310929       0  310929  309991   938.1    0.00  1069.6 16890.9    0.00 16890.9 16869.9   21.00
   15 112    36       0   31720  310924       0  310924  309990   933.7    0.00  1069.6 16890.8    0.00 16890.8 16869.8   21.03
   15 113    37       0   31720  310919       0  310919  309989   929.6    0.00  1069.6 16890.8    0.00 16890.8 16869.7   21.05
   15 114    38       0   31720  310913       0  310913  309988   925.4    0.00  1069.6 16890.7    0.00 16890.7 16869.6   21.07
   15 115    39       0   31722  310906       0  310906  309986   920.5    0.00  1069.6 16890.6    0.00 16890.6 16869.5   21.10
   15 116    40       0   31724  310899       0  310899  309984   915.0    0.00  1069.7 16890.5    0.00 16890.5 16869.4   21.12
   15 117    41       0   31734  310890       0  310890  309982   908.2    0.00  1070.1 16890.4    0.00 16890.4 16869.2   21.15
   15 118    42       0   31745  310879       0  310879  309979   899.8    0.00  1070.5 16890.2    0.00 16890.2 16869.0   21.19
   15 119    43       0   31745  310867       0  310867  309976   891.1    0.00  1070.5 16890.1    0.00 16890.1 16868.9   21.21
   15 120    44       0   31747  310856       0  310856  309974   882.7    0.00  1070.6 16889.9    0.00 16889.9 16868.7   21.23
   15 121    45       0   31785  310846       0  310846  309971   874.7    0.00  1072.0 16889.8    0.00 16889.8 16868.5   21.25
   15 122    46       0   31786  310839       0  310839  309969   869.7    0.00  1072.0 16889.6    0.00 16889.6 16868.4   21.26
   15 123    47       0   31833  310833       0  310833  309967   865.3    0.00  1073.8 16889.5    0.00 16889.5 16868.3   21.27
   15 124    48       0   31833  310825       0  310825  309965   860.2    0.00  1073.8 16889.4    0.00 16889.4 16868.1   21.27
   15 125    49       0   31833  310814       0  310814  309962   851.9    0.00  1073.8 16889.2    0.00 16889.2 16867.9   21.28
   15 126    50       0   31833  310800       0  310800  309958   841.9    0.00  1073.8 16889.0    0.00 16889.0 16867.7   21.28
   15 127    51       0   31832  310787       0  310787  309954   832.8    0.00  1073.8 16888.7    0.00 16888.7 16867.4   21.29
   15 128    52       0   31832  310771       0  310771  309949   821.8    0.00  1073.8 16888.4    0.00 16888.4 16867.1   21.28
   15 129    53       0   31832  310755       0  310755  309945   810.2    0.00  1073.8 16888.1    0.00 16888.1 16866.8   21.26
   15 130    54       0   31832  310740       0  310740  309940   799.6    0.00  1073.8 16887.8    0.00 16887.8 16866.5   21.23
   15 131    55       0   31833  310726       0  310726  309936   790.0    0.00  1073.8 16887.5    0.00 16887.5 16866.3   21.20
   15 132    56       0   31832  310713       0  310713  309932   780.6    0.00  1073.8 16887.2    0.00 16887.2 16866.0   21.17
   15 133    57       0   31832  310698       0  310698  309927   770.3    0.00  1073.8 16886.9    0.00 16886.9 16865.7   21.13
   15 134    58       0   31832  310682       0  310682  309922   759.4    0.00  1073.8 16886.5    0.00 16886.5 16865.4   21.07
   15 135    59       0   31832  310666       0  310666  309917   748.4    0.00  1073.8 16886.1    0.00 16886.1 16865.1   21.01
   15 136    60       0   31832  310651       0  310651  309912   738.4    0.00  1073.8 16885.8    0.00 16885.8 16864.8   20.95
   15 137    61       0   31832  310636       0  310636  309908   728.9    0.00  1073.8 16885.4    0.00 16885.4 16864.5   20.88
   15 138    62       0   31832  310623       0  310623  309903   720.2    0.00  1073.8 16885.1    0.00 16885.1 16864.3   20.82
   15 139    63       0   31832  310611       0  310611  309899   712.0    0.00  1073.8 16884.8    0.00 16884.8 16864.0   20.76
   15 140    64       0   31832  310599       0  310599  309895   704.2    0.00  1073.8 16884.4    0.00 16884.4 16863.8   20.69
   15 141    65       0   31832  310588       0  310588  309890   697.6    0.00  1073.8 16884.1    0.00 16884.1 16863.5   20.63
   15 142    66       0   31832  310578       0  310578  309887   691.1    0.00  1073.8 16883.9    0.00 16883.9 16863.3   20.58
   15 143    67       0   31832  310568       0  310568  309883   684.9    0.00  1073.7 16883.6    0.00 16883.6 16863.1   20.52
   15 144    68       0   31832  310560       0  310560  309881   679.5    0.00  1073.7 16883.4    0.00 16883.4 16862.9   20.46
   15 145    69       0   31831  310552       0  310552  309878   674.6    0.00  1073.7 16883.2    0.00 16883.2 16862.8   20.41
   15 146    70       0   31831  310543       0  310543  309875   668.2    0.00  1073.7 16882.9    0.00 16882.9 16862.6   20.34
   15 147    71       0   31831  310533       0  310533  309871   661.7    0.00  1073.7 16882.6    0.00 16882.6 16862.4   20.27
   15 148    72       0   31831  310523       0  310523  309868   655.4    0.00  1073.7 16882.4    0.00 16882.4 16862.2   20.20
   15 149    73       0   31831  310513       0  310513  309864   649.1    0.00  1073.7 16882.1    0.00 16882.1 16862.0   20.12
   15 150    74       0   31831  310502       0  310502  309860   642.5    0.00  1073.7 16881.8    0.00 16881.8 16861.7   20.04
   15 151    75       0   31831  310492       0  310492  309856   636.2    0.00  1073.7 16881.4    0.00 16881.4 16861.5   19.97
   15 152    76       0   31831  310481       0  310481  309851   629.6    0.00  1073.7 16881.1    0.00 16881.1 16861.2   19.88
   15 153    77       0   31830  310467       0  310467  309846   621.9    0.00  1073.7 16880.7    0.00 16880.7 16860.9   19.78
   15 154    78       0   31830  310453       0  310453  309839   613.6    0.00  1073.7 16880.2    0.00 16880.2 16860.5   19.66
   15 155    79       0   31830  310437       0  310437  309832   605.1    0.00  1073.7 16879.7    0.00 16879.7 16860.1   19.54
   15 156    80       0   31829  310421       0  310421  309824   596.5    0.00  1073.7 16879.1    0.00 16879.1 16859.7   19.42
   15 157    81       0   31829  310404       0  310404  309816   587.7    0.00  1073.7 16878.5    0.00 16878.5 16859.2   19.28
   15 158    82       0   31828  310385       0  310385  309807   577.7    0.00  1073.6 16877.9    0.00 16877.9 16858.8   19.12
   15 159    83       0   31828  310366       0  310366  309798   568.3    0.00  1073.6 16877.2    0.00 16877.2 16858.2   18.97
   15 160    84       0   31827  310347       0  310347  309790   557.0    0.00  1073.6 16876.6    0.00 16876.6 16857.8   18.78
   15 161    85       0   31827  310328       0  310328  309782   546.5    0.00  1073.6 16875.9    0.00 16875.9 16857.4   18.59
   15 162    86       0   31827  310312       0  310312  309775   537.0    0.00  1073.6 16875.4    0.00 16875.4 16857.0   18.42
   15 163    87       0   31826  310297       0  310297  309769   528.2    0.00  1073.6 16874.9    0.00 16874.9 16856.6   18.25
   15 164    88       0   31826  310282       0  310282  309762   520.1    0.00  1073.6 16874.3    0.00 16874.3 16856.2   18.10
   15 165    89       0   31826  310267       0  310267  309755   511.9    0.00  1073.6 16873.8    0.00 16873.8 16855.9   17.93
   15 166    90       0   31825  310251       0  310251  309747   503.9    0.00  1073.5 16873.2    0.00 16873.2 16855.4   17.77
   15 167    91       0   31825  310235       0  310235  309739   496.2    0.00  1073.5 16872.6    0.00 16872.6 16855.0   17.61
   15 168    92       0   31824  310219       0  310219  309731   487.9    0.00  1073.5 16872.0    0.00 16872.0 16854.6   17.44
   15 169    93       0   31824  310204       0  310204  309724   479.9    0.00  1073.5 16871.4    0.00 16871.4 16854.2   17.27
   15 170    94       0   31823  310192       0  310192  309718   473.8    0.00  1073.5 16871.0    0.00 16871.0 16853.8   17.13
   15 171    95       0   31823  310180       0  310180  309712   468.1    0.00  1073.5 16870.5    0.00 16870.5 16853.5   17.00
   15 172    96       0   31823  310170       0  310170  309707   462.5    0.00  1073.5 16870.1    0.00 16870.1 16853.2   16.87
   15 173    97       0   31822  310159       0  310159  309702   457.2    0.00  1073.5 16869.7    0.00 16869.7 16853.0   16.75
   15 174    98       0   31822  310149       0  310149  309697   452.4    0.00  1073.4 16869.3    0.00 16869.3 16852.7   16.64
   15 175    99       0   31822  310139       0  310139  309692   447.6    0.00  1073.4 16868.9    0.00 16868.9 16852.4   16.53
   15 176   100       0   31821  310129       0  310129  309686   442.5    0.00  1073.4 16868.5    0.00 16868.5 16852.1   16.40
   15 177   101       0   31821  310118       0  310118  309681   437.1    0.00  1073.4 16868.1    0.00 16868.1 16851.8   16.27
   15 178   102       0   31821  310107       0  310107  309675   431.7    0.00  1073.4 16867.6    0.00 16867.6 16851.5   16.14
   15 179   103       0   31820  310095       0  310095  309669   426.6    0.00  1073.4 16867.2    0.00 16867.2 16851.1   16.01
   15 180   104       0   31820  310083       0  310083  309662   421.4    0.00  1073.4 16866.6    0.00 16866.6 16850.8   15.88
   15 181   105       0   31819  310070       0  310070  309654   416.0    0.00  1073.4 16866.1    0.00 16866.1 16850.4   15.74
   15 182   106       0   31818  310056       0  310056  309646   410.6    0.00  1073.3 16865.5    0.00 16865.5 16849.9   15.60
   15 183   107       0   31818  310042       0  310042  309637   405.3    0.00  1073.3 16864.9    0.00 16864.9 16849.4   15.46
   15 184   108       0   31817  310028       0  310028  309627   400.3    0.00  1073.3 16864.3    0.00 16864.3 16848.9   15.33
   15 185   109       0   31816  310013       0  310013  309617   395.4    0.00  1073.3 16863.6    0.00 16863.6 16848.4   15.20
   15 186   110       0   31815  309998       0  309998  309607   390.6    0.00  1073.3 16862.9    0.00 16862.9 16847.8   15.07
   15 187   111       0   31815  309982       0  309982  309596   386.2    0.00  1073.2 16862.2    0.00 16862.2 16847.2   14.95
   15 188   112       0   31814  309967       0  309967  309585   382.1    0.00  1073.2 16861.5    0.00 16861.5 16846.6   14.83
   15 189   113       0   31813  309951       0  309951  309574   376.8    0.00  1073.2 16860.7    0.00 16860.7 16846.0   14.69
   15 190   114       0   31812  309934       0  309934  309563   370.7    0.00  1073.2 16860.0    0.00 16860.0 16845.5   14.53
   15 191   115       0   31812  309920       0  309920  309554   365.7    0.00  1073.1 16859.3    0.00 16859.3 16844.9   14.39
   15 192   116       0   31811  309908       0  309908  309546   361.8    0.00  1073.1 16858.8    0.00 16858.8 16844.5   14.28
   15 193   117       0   31811  309897       0  309897  309538   358.6    0.00  1073.1 16858.3    0.00 16858.3 16844.1   14.19
   15 194   118       0   31810  309887       0  309887  309531   355.9    0.00  1073.1 16857.8    0.00 16857.8 16843.7   14.11
   15 195   119       0   31810  309878       0  309878  309524   353.3    0.00  1073.1 16857.3    0.00 16857.3 16843.3   14.04
   15 196   120       0   31809  309867       0  309867  309517   350.7    0.00  1073.1 16856.8    0.00 16856.8 16842.9   13.96
   15 197   121       0   31809  309857       0  309857  309509   348.0    0.00  1073.0 16856.3    0.00 16856.3 16842.4   13.88
   15 198   122       0   31808  309846       0  309846  309500   345.4    0.00  1073.0 16855.7    0.00 16855.7 16841.9   13.81
   15 199   123       0   31808  309835       0  309835  309492   343.0    0.00  1073.0 16855.2    0.00 16855.2 16841.4   13.74
   15 200   124       0   31807  309823       0  309823  309483   340.8    0.00  1073.0 16854.6    0.00 16854.6 16840.9   13.67
   15 201   125       0   31807  309812       0  309812  309474   338.7    0.00  1073.0 16854.0    0.00 16854.0 16840.4   13.61
   15 202   126       0   31806  309802       0  309802  309465   336.7    0.00  1073.0 16853.4    0.00 16853.4 16839.9   13.55
   15 203   127       0   31806  309791       0  309791  309456   334.9    0.00  1072.9 16852.9    0.00 16852.9 16839.4   13.50
   15 204   128       0   31805  309780       0  309780  309447   333.2    0.00  1072.9 16852.3    0.00 16852.3 16838.9   13.45
   15 205   129       0   31805  309770       0  309770  309439   331.5    0.00  1072.9 16851.7    0.00 16851.7 16838.3   13.39
   15 206   130       0   31804  309760       0  309760  309430   329.9    0.00  1072.9 16851.2    0.00 16851.2 16837.8   13.34
   15 207   131       0   31804  309751       0  309751  309422   328.5    0.00  1072.9 16850.7    0.00 16850.7 16837.4   13.30
   15 208   132       0   31803  309742       0  309742  309415   327.4    0.00  1072.9 16850.2    0.00 16850.2 16836.9   13.27
   15 209   133       0   31803  309734       0  309734  309408   325.8    0.00  1072.9 16849.8    0.00 16849.8 16836.5   13.22
   15 210   134       0   31803  309726       0  309726  309402   324.3    0.00  1072.8 16849.3    0.00 16849.3 16836.2   13.18
   15 211   135       0   31802  309719       0  309719  309396   322.9    0.00  1072.8 16848.9    0.00 16848.9 16835.8   13.13
   15 212   136       0   31802  309713       0  309713  309391   321.8    0.00  1072.8 16848.6    0.00 16848.6 16835.5   13.10
   15 213   137       0   31802  309707       0  309707  309386   320.7    0.00  1072.8 16848.2    0.00 16848.2 16835.2   13.07
   15 214   138       0   31801  309701       0  309701  309381   319.8    0.00  1072.8 16847.9    0.00 16847.9 16834.9   13.04
   15 215   139       0   31801  309695       0  309695  309376   318.9    0.00  1072.8 16847.6    0.00 16847.6 16834.5   13.01
   15 216   140       0   31801  309688       0  309688  309370   318.1    0.00  1072.8 16847.2    0.00 16847.2 16834.2   12.99
   15 217   141       0   31800  309682       0  309682  309364   317.2    0.00  1072.8 16846.8    0.00 16846.8 16833.8   12.96
   15 218   142       0   31800  309674       0  309674  309358   316.4    0.00  1072.8 16846.4    0.00 16846.4 16833.4   12.93
   15 219   143       0   31800  309667       0  309667  309351   315.6    0.00  1072.7 16845.9    0.00 16845.9 16833.0   12.91
   15 220   144       0   31799  309659       0  309659  309344   314.9    0.00  1072.7 16845.5    0.00 16845.5 16832.6   12.88
   15 221   145       0   31799  309650       0  309650  309337   313.9    0.00  1072.7 16845.0    0.00 16845.0 16832.1   12.85
   15 222   146       0   31799  309642       0  309642  309329   313.0    0.00  1072.7 16844.5    0.00 16844.5 16831.6   12.82
   15 223   147       0   31798  309633       0  309633  309321   312.2    0.00  1072.7 16843.9    0.00 16843.9 16831.2   12.80
   15 224   148       0   31798  309625       0  309625  309313   311.4    0.00  1072.7 16843.4    0.00 16843.4 16830.7   12.77
   15 225   149       0   31797  309616       0  309616  309305   310.7    0.00  1072.7 16842.9    0.00 16842.9 16830.2   12.75
   15 226   150       0   31797  309608       0  309608  309298   310.0    0.00  1072.7 16842.4    0.00 16842.4 16829.7   12.72
   15 227   151       0   31796  309598       0  309598  309290   308.4    0.00  1072.6 16841.9    0.00 16841.9 16829.2   12.67
   15 228   152       0   31796  309589       0  309589  309282   307.0    0.00  1072.6 16841.4    0.00 16841.4 16828.7   12.63
   15 229   153       0   31796  309580       0  309580  309275   304.6    0.00  1072.6 16840.9    0.00 16840.9 16828.3   12.56
   15 230   154       0   31795  309571       0  309571  309268   302.4    0.00  1072.6 16840.4    0.00 16840.4 16827.9   12.48
   15 231   155       0   31795  309563       0  309563  309262   300.2    0.00  1072.6 16839.9    0.00 16839.9 16827.5   12.41
   15 232   156       0   31794  309556       0  309556  309257   298.5    0.00  1072.6 16839.6    0.00 16839.6 16827.2   12.36
   15 233   157       0   31794  309549       0  309549  309252   297.0    0.00  1072.6 16839.2    0.00 16839.2 16826.9   12.31
   15 234   158       0   31794  309543       0  309543  309247   295.7    0.00  1072.5 16838.8    0.00 16838.8 16826.6   12.27
   15 235   159       0   31793  309536       0  309536  309242   294.4    0.00  1072.5 16838.5    0.00 16838.5 16826.3   12.22
   15 236   160       0   31793  309529       0  309529  309236   292.9    0.00  1072.5 16838.1    0.00 16838.1 16825.9   12.17
   15 237   161       0   31792  309520       0  309520  309230   289.4    0.00  1072.5 16837.6    0.00 16837.6 16825.6   12.06

*DSSAT Cropping System Model Ver. 4.8.5.000 -release  NOV 27, 2025 15:48:13

*RUN   4        : 4                         WHAPS048 TUDU1501    4
 MODEL          : WHAPS048 - Wheat
 EXPERIMENT     : TUDU1501 WH
 DATA PATH      :
 TREATMENT  4   : 4                         WHAPS048
  
@YEAR DOY   DAS    OMAC    SCDD    SOCD    SC0D    SCTD   SOMCT    LCTD    ONAC    SNDD    SOND    SN0D    SNTD   SOMNT    LNTD
   15 076     0       0   31829  311106       0  311106  310026  1080.0    0.00  1073.9 16892.2    0.00 16892.2 16872.7   19.50
   15 077     1       0   31551  311093       0  311093  310024  1069.3    0.00  1063.2 16892.2    0.00 16892.2 16872.5   19.65
   15 078     2       0   31551  311083       0  311083  310022  1060.4    0.00  1063.2 16892.1    0.00 16892.1 16872.4   19.78
   15 079     3       0   31552  311074       0  311074  310021  1053.4    0.00  1063.2 16892.1    0.00 16892.1 16872.2   19.87
   15 080     4       0   31562  311069       0  311069  310020  1048.6    0.00  1063.6 16892.1    0.00 16892.1 16872.2   19.93
   15 081     5       0   31562  311065       0  311065  310019  1045.5    0.00  1063.6 16892.1    0.00 16892.1 16872.1   19.97
   15 082     6       0   31562  311064       0  311064  310019  1044.9    0.00  1063.6 16892.1    0.00 16892.1 16872.1   19.98
   15 083     7       0   31562  311064       0  311064  310019  1044.8    0.00  1063.6 16892.0    0.00 16892.0 16872.1   19.98
   15 084     8       0   31562  311064       0  311064  310019  1044.8    0.00  1063.6 16892.0    0.00 16892.0 16872.1   19.98
   15 085     9       0   31562  311063       0  311063  310019  1044.3    0.00  1063.6 16892.0    0.00 16892.0 16872.0   19.99
   15 086    10       0   31567  311062       0  311062  310019  1043.8    0.00  1063.8 16892.0    0.00 16892.0 16872.0   20.00
   15 087    11       0   31567  311061       0  311061  310018  1042.4    0.00  1063.8 16892.0    0.00 16892.0 16872.0   20.02
   15 088    12       0   31567  311058       0  311058  310017  1040.2    0.00  1063.8 16892.0    0.00 16892.0 16871.9   20.05
   15 089    13       0   31599  311054       0  311054  310017  1037.2    0.00  1065.0 16891.9    0.00 16891.9 16871.9   20.09
   15 090    14       0   31612  311051       0  311051  310016  1034.4    0.00  1065.5 16891.9    0.00 16891.9 16871.8   20.12
   15 091    15       0   31624  311047       0  311047  310015  1031.1    0.00  1066.0 16891.9    0.00 16891.9 16871.7   20.16
   15 092    16       0   31639  311044       0  311044  310015  1028.8    0.00  1066.5 16891.9    0.00 16891.9 16871.7   20.18
   15 093    17       0   31639  311042       0  311042  310015  1027.8    0.00  1066.5 16891.9    0.00 16891.9 16871.7   20.20
   15 094    18       0   31653  311042       0  311042  310015  1027.8    0.00  1067.1 16891.9    0.00 16891.9 16871.7   20.20
   15 095    19       0   31653  311042       0  311042  310015  1027.7    0.00  1067.1 16891.9    0.00 16891.9 16871.7   20.20
   15 096    20       0   31653  311042       0  311042  310015  1027.7    0.00  1067.1 16891.9    0.00 16891.9 16871.7   20.20
   15 097    21       0   31653  311042       0  311042  310015  1027.7    0.00  1067.1 16891.9    0.00 16891.9 16871.7   20.20
   15 098    22       0   31653  311042       0  311042  310015  1027.7    0.00  1067.1 16891.9    0.00 16891.9 16871.7   20.20
   15 099    23       0   31653  311042       0  311042  310015  1027.7    0.00  1067.1 16891.9    0.00 16891.9 16871.7   20.20
   15 100    24       0   31653  311042       0  311042  310015  1027.7    0.00  1067.1 16891.9    0.00 16891.9 16871.7   20.20
   15 101    25       0   31653  311039       0  311039  310014  1025.1    0.00  1067.1 16891.8    0.00 16891.8 16871.6   20.23
   15 102    26       0   31653  311032       0  311032  310013  1019.3    0.00  1067.1 16891.8    0.00 16891.8 16871.5   20.29
   15 103    27       0   31654  311022       0  311022  310011  1010.9    0.00  1067.1 16891.8    0.00 16891.8 16871.4   20.38
   15 104    28       0   31654  311010       0  311010  310009  1001.3    0.00  1067.1 16891.7    0.00 16891.7 16871.2   20.48
   15 105    29       0   31654  310998       0  310998  310007   991.7    0.00  1067.1 16891.6    0.00 16891.6 16871.0   20.58
   15 106    30       0   31654  310986       0  310986  310004   981.8    0.00  1067.1 16891.5    0.00 16891.5 16870.8   20.67
   15 107    31       0   31719  310972       0  310972  310001   971.5    0.00  1069.6 16891.3    0.00 16891.3 16870.6   20.76
   15 108    32       0   31720  310956       0  310956  309998   958.4    0.00  1069.6 16891.2    0.00 16891.2 16870.4   20.86
   15 109    33       0   31720  310943       0  310943  309996   946.6    0.00  1069.6 16891.1    0.00 16891.1 16870.2   20.93
   15 110    34       0   31721  310931       0  310931  309994   936.6    0.00  1069.6 16891.0    0.00 16891.0 16870.1   20.98
   15 111    35       0   31721  310923       0  310923  309993   929.4    0.00  1069.6 16891.0    0.00 16891.0 16869.9   21.01
   15 112    36       0   31721  310916       0  310916  309992   924.3    0.00  1069.6 16890.9    0.00 16890.9 16869.9   21.03
   15 113    37       0   31721  310910       0  310910  309991   919.4    0.00  1069.6 16890.8    0.00 16890.8 16869.8   21.05
   15 114    38       0   31721  310904       0  310904  309990   914.6    0.00  1069.6 16890.8    0.00 16890.8 16869.7   21.07
   15 115    39       0   31723  310897       0  310897  309988   909.1    0.00  1069.7 16890.7    0.00 16890.7 16869.6   21.10
   15 116    40       0   31726  310889       0  310889  309986   902.9    0.00  1069.8 16890.6    0.00 16890.6 16869.4   21.12
   15 117    41       0   31736  310880       0  310880  309984   895.4    0.00  1070.1 16890.4    0.00 16890.4 16869.3   21.15
   15 118    42       0   31747  310868       0  310868  309982   885.9    0.00  1070.5 16890.3    0.00 16890.3 16869.1   21.17
   15 119    43       0   31747  310855       0  310855  309979   875.5    0.00  1070.5 16890.1    0.00 16890.1 16868.9   21.19
   15 120    44       0   31749  310843       0  310843  309977   865.6    0.00  1070.6 16890.0    0.00 16890.0 16868.8   21.20
   15 121    45       0   31787  310831       0  310831  309975   856.1    0.00  1072.1 16889.8    0.00 16889.8 16868.6   21.20
   15 122    46       0   31788  310823       0  310823  309973   850.2    0.00  1072.1 16889.7    0.00 16889.7 16868.5   21.20
   15 123    47       0   31835  310817       0  310817  309972   845.2    0.00  1073.9 16889.6    0.00 16889.6 16868.4   21.20
   15 124    48       0   31835  310809       0  310809  309969   839.5    0.00  1073.9 16889.4    0.00 16889.4 16868.2   21.20
   15 125    49       0   31835  310797       0  310797  309967   830.4    0.00  1073.9 16889.2    0.00 16889.2 16868.0   21.19
   15 126    50       0   31835  310782       0  310782  309963   819.3    0.00  1073.9 16889.0    0.00 16889.0 16867.8   21.18
   15 127    51       0   31835  310768       0  310768  309959   809.4    0.00  1073.9 16888.7    0.00 16888.7 16867.5   21.17
   15 128    52       0   31835  310752       0  310752  309954   797.7    0.00  1073.9 16888.4    0.00 16888.4 16867.2   21.14
   15 129    53       0   31835  310735       0  310735  309950   785.1    0.00  1073.9 16888.1    0.00 16888.1 16866.9   21.11
   15 130    54       0   31835  310720       0  310720  309945   774.1    0.00  1073.9 16887.7    0.00 16887.7 16866.7   21.07
   15 131    55       0   31835  310706       0  310706  309941   764.8    0.00  1073.9 16887.5    0.00 16887.5 16866.4   21.03
   15 132    56       0   31835  310693       0  310693  309937   755.9    0.00  1073.9 16887.2    0.00 16887.2 16866.2   20.99
   15 133    57       0   31835  310679       0  310679  309932   746.7    0.00  1073.9 16886.8    0.00 16886.8 16865.9   20.94
   15 134    58       0   31835  310664       0  310664  309927   736.6    0.00  1073.9 16886.4    0.00 16886.4 16865.6   20.88
   15 135    59       0   31835  310649       0  310649  309922   727.3    0.00  1073.9 16886.1    0.00 16886.1 16865.2   20.82
   15 136    60       0   31834  310635       0  310635  309917   718.6    0.00  1073.8 16885.7    0.00 16885.7 16864.9   20.76
   15 137    61       0   31834  310622       0  310622  309911   710.3    0.00  1073.8 16885.3    0.00 16885.3 16864.6   20.70
   15 138    62       0   31834  310609       0  310609  309907   702.6    0.00  1073.8 16885.0    0.00 16885.0 16864.4   20.64
   15 139    63       0   31834  310598       0  310598  309902   695.8    0.00  1073.8 16884.7    0.00 16884.7 16864.1   20.58
   15 140    64       0   31834  310586       0  310586  309898   688.2    0.00  1073.8 16884.4    0.00 16884.4 16863.9   20.51
   15 141    65       0   31833  310576       0  310576  309894   681.9    0.00  1073.8 16884.1    0.00 16884.1 16863.6   20.45
   15 142    66       0   31833  310566       0  310566  309890   675.6    0.00  1073.8 16883.8    0.00 16883.8 16863.4   20.39
   15 143    67       0   31833  310556       0  310556  309887   669.6    0.00  1073.8 16883.5    0.00 16883.5 16863.2   20.33
   15 144    68       0   31833  310548       0  310548  309884   664.5    0.00  1073.8 16883.3    0.00 16883.3 16863.0   20.27
   15 145    69       0   31833  310541       0  310541  309881   659.8    0.00  1073.8 16883.1    0.00 16883.1 16862.9   20.22
   15 146    70       0   31833  310532       0  310532  309878   654.1    0.00  1073.8 16882.8    0.00 16882.8 16862.7   20.15
   15 147    71       0   31833  310522       0  310522  309874   648.2    0.00  1073.8 16882.5    0.00 16882.5 16862.5   20.08
   15 148    72       0   31833  310513       0  310513  309871   642.5    0.00  1073.8 16882.3    0.00 16882.3 16862.3   20.01
   15 149    73       0   31833  310503       0  310503  309867   636.7    0.00  1073.8 16882.0    0.00 16882.0 16862.0   19.94
   15 150    74       0   31832  310493       0  310493  309863   630.5    0.00  1073.8 16881.7    0.00 16881.7 16861.8   19.86
   15 151    75       0   31832  310483       0  310483  309858   624.3    0.00  1073.8 16881.3    0.00 16881.3 16861.6   19.78
   15 152    76       0   31832  310471       0  310471  309854   617.8    0.00  1073.8 16881.0    0.00 16881.0 16861.3   19.69
   15 153    77       0   31832  310458       0  310458  309848   609.8    0.00  1073.7 16880.6    0.00 16880.6 16861.0   19.58
   15 154    78       0   31831  310443       0  310443  309842   601.2    0.00  1073.7 16880.1    0.00 16880.1 16860.6   19.46
   15 155    79       0   31831  310427       0  310427  309834   592.6    0.00  1073.7 16879.5    0.00 16879.5 16860.2   19.33
   15 156    80       0   31831  310411       0  310411  309827   584.2    0.00  1073.7 16879.0    0.00 16879.0 16859.8   19.21
   15 157    81       0   31830  310394       0  310394  309818   575.9    0.00  1073.7 16878.4    0.00 16878.4 16859.3   19.08
   15 158    82       0   31830  310376       0  310376  309809   566.6    0.00  1073.7 16877.8    0.00 16877.8 16858.8   18.93
   15 159    83       0   31829  310359       0  310359  309801   558.1    0.00  1073.7 16877.1    0.00 16877.1 16858.3   18.79
   15 160    84       0   31829  310339       0  310339  309792   547.0    0.00  1073.7 16876.5    0.00 16876.5 16857.9   18.59
   15 161    85       0   31828  310321       0  310321  309785   536.6    0.00  1073.6 16875.8    0.00 16875.8 16857.5   18.40
   15 162    86       0   31828  310305       0  310305  309778   527.3    0.00  1073.6 16875.3    0.00 16875.3 16857.1   18.22
   15 163    87       0   31828  310291       0  310291  309772   519.0    0.00  1073.6 16874.8    0.00 16874.8 16856.7   18.06
   15 164    88       0   31827  310276       0  310276  309765   511.3    0.00  1073.6 16874.3    0.00 16874.3 16856.4   17.91
   15 165    89       0   31827  310262       0  310262  309758   503.6    0.00  1073.6 16873.7    0.00 16873.7 16856.0   17.75
   15 166    90       0   31826  310246       0  310246  309750   496.0    0.00  1073.6 16873.1    0.00 16873.1 16855.5   17.59
   15 167    91       0   31826  310231       0  310231  309742   488.5    0.00  1073.6 16872.5    0.00 16872.5 16855.1   17.43
   15 168    92       0   31825  310215       0  310215  309734   480.4    0.00  1073.6 16871.9    0.00 16871.9 16854.7   17.26
   15 169    93       0   31825  310200       0  310200  309727   472.7    0.00  1073.5 16871.4    0.00 16871.4 16854.3   17.09
   15 170    94       0   31824  310188       0  310188  309721   466.6    0.00  1073.5 16870.9    0.00 16870.9 16854.0   16.95
   15 171    95       0   31824  310177       0  310177  309716   461.1    0.00  1073.5 16870.5    0.00 16870.5 16853.7   16.83
   15 172    96       0   31824  310166       0  310166  309710   455.7    0.00  1073.5 16870.1    0.00 16870.1 16853.4   16.70
   15 173    97       0   31823  310156       0  310156  309705   450.6    0.00  1073.5 16869.7    0.00 16869.7 16853.1   16.58
   15 174    98       0   31823  310146       0  310146  309700   445.9    0.00  1073.5 16869.3    0.00 16869.3 16852.8   16.47
   15 175    99       0   31823  310136       0  310136  309695   441.3    0.00  1073.5 16868.9    0.00 16868.9 16852.5   16.36
   15 176   100       0   31822  310126       0  310126  309689   436.2    0.00  1073.5 16868.5    0.00 16868.5 16852.2   16.24
   15 177   101       0   31822  310115       0  310115  309684   431.0    0.00  1073.5 16868.0    0.00 16868.0 16851.9   16.11
   15 178   102       0   31822  310104       0  310104  309678   425.8    0.00  1073.4 16867.6    0.00 16867.6 16851.6   15.98
   15 179   103       0   31821  310092       0  310092  309672   420.8    0.00  1073.4 16867.1    0.00 16867.1 16851.3   15.85
   15 180   104       0   31821  310080       0  310080  309665   415.6    0.00  1073.4 16866.6    0.00 16866.6 16850.9   15.72
   15 181   105       0   31820  310067       0  310067  309657   410.4    0.00  1073.4 16866.1    0.00 16866.1 16850.5   15.59
   15 182   106       0   31819  310054       0  310054  309648   405.1    0.00  1073.4 16865.5    0.00 16865.5 16850.0   15.45
   15 183   107       0   31819  310040       0  310040  309640   400.2    0.00  1073.4 16864.9    0.00 16864.9 16849.5   15.32
   15 184   108       0   31818  310026       0  310026  309631   395.7    0.00  1073.3 16864.3    0.00 16864.3 16849.1   15.20
   15 185   109       0   31817  310013       0  310013  309621   391.4    0.00  1073.3 16863.6    0.00 16863.6 16848.5   15.09
   15 186   110       0   31816  309999       0  309999  309612   387.3    0.00  1073.3 16863.0    0.00 16863.0 16848.0   14.98
   15 187   111       0   31816  309986       0  309986  309602   383.6    0.00  1073.3 16862.4    0.00 16862.4 16847.5   14.88
   15 188   112       0   31815  309974       0  309974  309593   380.3    0.00  1073.2 16861.7    0.00 16861.7 16847.0   14.79
   15 189   113       0   31814  309960       0  309960  309584   376.1    0.00  1073.2 16861.1    0.00 16861.1 16846.4   14.68
   15 190   114       0   31814  309946       0  309946  309575   371.0    0.00  1073.2 16860.4    0.00 16860.4 16845.9   14.54
   15 191   115       0   31813  309934       0  309934  309567   366.8    0.00  1073.2 16859.9    0.00 16859.9 16845.5   14.42
   15 192   116       0   31813  309924       0  309924  309561   363.6    0.00  1073.2 16859.4    0.00 16859.4 16845.1   14.33
   15 193   117       0   31812  309915       0  309915  309554   361.0    0.00  1073.1 16859.0    0.00 16859.0 16844.7   14.26
   15 194   118       0   31812  309908       0  309908  309549   359.1    0.00  1073.1 16858.6    0.00 16858.6 16844.4   14.20
   15 195   119       0   31811  309901       0  309901  309544   357.3    0.00  1073.1 16858.2    0.00 16858.2 16844.1   14.15
   15 196   120       0   31811  309893       0  309893  309538   355.4    0.00  1073.1 16857.8    0.00 16857.8 16843.7   14.10
   15 197   121       0   31810  309885       0  309885  309532   353.6    0.00  1073.1 16857.4    0.00 16857.4 16843.3   14.04
   15 198   122       0   31810  309878       0  309878  309526   352.0    0.00  1073.1 16857.0    0.00 16857.0 16843.0   14.00
   15 199   123       0   31810  309870       0  309870  309519   350.6    0.00  1073.1 16856.5    0.00 16856.5 16842.6   13.96
   15 200   124       0   31809  309863       0  309863  309513   349.4    0.00  1073.1 16856.1    0.00 16856.1 16842.2   13.92
[...]
   15 082     6       0   31562  311064       0  311064  310019  1044.9    0.00  1063.6 16892.1    0.00 16892.1 16872.1   19.98
   15 083     7       0   31562  311064       0  311064  310019  1044.8    0.00  1063.6 16892.0    0.00 16892.0 16872.1   19.98
   15 084     8       0   31562  311064       0  311064  310019  1044.8    0.00  1063.6 16892.0    0.00 16892.0 16872.1   19.98
   15 085     9       0   31562  311063       0  311063  310019  1044.3    0.00  1063.6 16892.0    0.00 16892.0 16872.0   19.99
   15 086    10       0   31567  311062       0  311062  310019  1043.8    0.00  1063.8 16892.0    0.00 16892.0 16872.0   20.00
   15 087    11       0   31567  311061       0  311061  310018  1042.4    0.00  1063.8 16892.0    0.00 16892.0 16872.0   20.02
   15 088    12       0   31567  311058       0  311058  310017  1040.2    0.00  1063.8 16892.0    0.00 16892.0 16871.9   20.05
   15 089    13       0   31599  311054       0  311054  310017  1037.2    0.00  1065.0 16891.9    0.00 16891.9 16871.9   20.09
   15 090    14       0   31612  311051       0  311051  310016  1034.4    0.00  1065.5 16891.9    0.00 16891.9 16871.8   20.12
   15 091    15       0   31624  311047       0  311047  310015  1031.1    0.00  1066.0 16891.9    0.00 16891.9 16871.7   20.16
   15 092    16       0   31639  311044       0  311044  310015  1028.8    0.00  1066.5 16891.9    0.00 16891.9 16871.7   20.18
   15 093    17       0   31639  311042       0  311042  310015  1027.8    0.00  1066.5 16891.9    0.00 16891.9 16871.7   20.20
   15 094    18       0   31653  311042       0  311042  310015  1027.8    0.00  1067.1 16891.9    0.00 16891.9 16871.7   20.20
   15 095    19       0   31653  311042       0  311042  310015  1027.7    0.00  1067.1 16891.9    0.00 16891.9 16871.7   20.20
   15 096    20       0   31653  311042       0  311042  310015  1027.7    0.00  1067.1 16891.9    0.00 16891.9 16871.7   20.20
   15 097    21       0   31653  311042       0  311042  310015  1027.7    0.00  1067.1 16891.9    0.00 16891.9 16871.7   20.20
   15 098    22       0   31653  311042       0  311042  310015  1027.7    0.00  1067.1 16891.9    0.00 16891.9 16871.7   20.20
   15 099    23       0   31653  311042       0  311042  310015  1027.7    0.00  1067.1 16891.9    0.00 16891.9 16871.7   20.20
   15 100    24       0   31653  311042       0  311042  310015  1027.7    0.00  1067.1 16891.9    0.00 16891.9 16871.7   20.20
   15 101    25       0   31653  311039       0  311039  310014  1025.2    0.00  1067.1 16891.8    0.00 16891.8 16871.6   20.23
   15 102    26       0   31653  311032       0  311032  310013  1019.6    0.00  1067.1 16891.8    0.00 16891.8 16871.5   20.29
   15 103    27       0   31653  311022       0  311022  310011  1011.5    0.00  1067.1 16891.8    0.00 16891.8 16871.4   20.38
   15 104    28       0   31654  311011       0  311011  310009  1002.3    0.00  1067.1 16891.7    0.00 16891.7 16871.2   20.48
   15 105    29       0   31654  310999       0  310999  310006   993.1    0.00  1067.1 16891.6    0.00 16891.6 16871.0   20.57
   15 106    30       0   31654  310987       0  310987  310003   983.5    0.00  1067.1 16891.5    0.00 16891.5 16870.8   20.67
   15 107    31       0   31719  310974       0  310974  310000   973.4    0.00  1069.6 16891.3    0.00 16891.3 16870.6   20.76
   15 108    32       0   31719  310960       0  310960  309997   962.4    0.00  1069.6 16891.2    0.00 16891.2 16870.4   20.85
   15 109    33       0   31720  310947       0  310947  309995   952.4    0.00  1069.6 16891.1    0.00 16891.1 16870.2   20.91
   15 110    34       0   31720  310937       0  310937  309993   944.1    0.00  1069.6 16891.0    0.00 16891.0 16870.0   20.97
   15 111    35       0   31720  310929       0  310929  309991   938.1    0.00  1069.6 16890.9    0.00 16890.9 16869.9   21.00
   15 112    36       0   31720  310924       0  310924  309990   933.7    0.00  1069.6 16890.8    0.00 16890.8 16869.8   21.03
   15 113    37       0   31720  310919       0  310919  309989   929.6    0.00  1069.6 16890.8    0.00 16890.8 16869.7   21.05
   15 114    38       0   31720  310913       0  310913  309988   925.4    0.00  1069.6 16890.7    0.00 16890.7 16869.6   21.07
   15 115    39       0   31722  310906       0  310906  309986   920.5    0.00  1069.6 16890.6    0.00 16890.6 16869.5   21.10
   15 116    40       0   31724  310899       0  310899  309984   915.0    0.00  1069.7 16890.5    0.00 16890.5 16869.4   21.12
   15 117    41       0   31734  310890       0  310890  309982   908.2    0.00  1070.1 16890.4    0.00 16890.4 16869.2   21.15
   15 118    42       0   31745  310879       0  310879  309979   899.8    0.00  1070.5 16890.2    0.00 16890.2 16869.0   21.19
   15 119    43       0   31745  310867       0  310867  309976   891.1    0.00  1070.5 16890.1    0.00 16890.1 16868.9   21.21
   15 120    44       0   31747  310856       0  310856  309974   882.7    0.00  1070.6 16889.9    0.00 16889.9 16868.7   21.23
   15 121    45       0   31785  310846       0  310846  309971   874.7    0.00  1072.0 16889.8    0.00 16889.8 16868.5   21.25
   15 122    46       0   31786  310839       0  310839  309969   869.7    0.00  1072.0 16889.6    0.00 16889.6 16868.4   21.26
   15 123    47       0   31833  310833       0  310833  309967   865.3    0.00  1073.8 16889.5    0.00 16889.5 16868.3   21.27
   15 124    48       0   31833  310825       0  310825  309965   860.2    0.00  1073.8 16889.4    0.00 16889.4 16868.1   21.27
   15 125    49       0   31833  310814       0  310814  309962   851.9    0.00  1073.8 16889.2    0.00 16889.2 16867.9   21.28
   15 126    50       0   31833  310800       0  310800  309958   841.9    0.00  1073.8 16889.0    0.00 16889.0 16867.7   21.28
   15 127    51       0   31832  310787       0  310787  309954   832.8    0.00  1073.8 16888.7    0.00 16888.7 16867.4   21.29
   15 128    52       0   31832  310771       0  310771  309949   821.8    0.00  1073.8 16888.4    0.00 16888.4 16867.1   21.28
   15 129    53       0   31832  310755       0  310755  309945   810.2    0.00  1073.8 16888.1    0.00 16888.1 16866.8   21.26
   15 130    54       0   31832  310740       0  310740  309940   799.6    0.00  1073.8 16887.8    0.00 16887.8 16866.5   21.23
   15 131    55       0   31833  310726       0  310726  309936   790.0    0.00  1073.8 16887.5    0.00 16887.5 16866.3   21.20
   15 132    56       0   31832  310713       0  310713  309932   780.6    0.00  1073.8 16887.2    0.00 16887.2 16866.0   21.17
   15 133    57       0   31832  310698       0  310698  309927   770.3    0.00  1073.8 16886.9    0.00 16886.9 16865.7   21.13
   15 134    58       0   31832  310682       0  310682  309922   759.4    0.00  1073.8 16886.5    0.00 16886.5 16865.4   21.07
   15 135    59       0   31832  310666       0  310666  309917   748.4    0.00  1073.8 16886.1    0.00 16886.1 16865.1   21.01
   15 136    60       0   31832  310651       0  310651  309912   738.4    0.00  1073.8 16885.8    0.00 16885.8 16864.8   20.95
   15 137    61       0   31832  310636       0  310636  309908   728.9    0.00  1073.8 16885.4    0.00 16885.4 16864.5   20.88
   15 138    62       0   31832  310623       0  310623  309903   720.2    0.00  1073.8 16885.1    0.00 16885.1 16864.3   20.82
   15 139    63       0   31832  310611       0  310611  309899   712.0    0.00  1073.8 16884.8    0.00 16884.8 16864.0   20.76
   15 140    64       0   31832  310599       0  310599  309895   704.2    0.00  1073.8 16884.4    0.00 16884.4 16863.8   20.69
   15 141    65       0   31832  310588       0  310588  309890   697.6    0.00  1073.8 16884.1    0.00 16884.1 16863.5   20.63
   15 142    66       0   31832  310578       0  310578  309887   691.1    0.00  1073.8 16883.9    0.00 16883.9 16863.3   20.58
   15 143    67       0   31832  310568       0  310568  309883   684.9    0.00  1073.7 16883.6    0.00 16883.6 16863.1   20.52
   15 144    68       0   31832  310560       0  310560  309881   679.5    0.00  1073.7 16883.4    0.00 16883.4 16862.9   20.46
   15 145    69       0   31831  310552       0  310552  309878   674.6    0.00  1073.7 16883.2    0.00 16883.2 16862.8   20.41
   15 146    70       0   31831  310543       0  310543  309875   668.2    0.00  1073.7 16882.9    0.00 16882.9 16862.6   20.34
   15 147    71       0   31831  310533       0  310533  309871   661.7    0.00  1073.7 16882.6    0.00 16882.6 16862.4   20.27
   15 148    72       0   31831  310523       0  310523  309868   655.4    0.00  1073.7 16882.4    0.00 16882.4 16862.2   20.20
   15 149    73       0   31831  310513       0  310513  309864   649.1    0.00  1073.7 16882.1    0.00 16882.1 16862.0   20.12
   15 150    74       0   31831  310502       0  310502  309860   642.5    0.00  1073.7 16881.8    0.00 16881.8 16861.7   20.04
   15 151    75       0   31831  310492       0  310492  309856   636.2    0.00  1073.7 16881.4    0.00 16881.4 16861.5   19.97
   15 152    76       0   31831  310481       0  310481  309851   629.6    0.00  1073.7 16881.1    0.00 16881.1 16861.2   19.88
   15 153    77       0   31830  310467       0  310467  309846   621.9    0.00  1073.7 16880.7    0.00 16880.7 16860.9   19.78
   15 154    78       0   31830  310453       0  310453  309839   613.6    0.00  1073.7 16880.2    0.00 16880.2 16860.5   19.66
   15 155    79       0   31830  310437       0  310437  309832   605.1    0.00  1073.7 16879.7    0.00 16879.7 16860.1   19.54
   15 156    80       0   31829  310421       0  310421  309824   596.5    0.00  1073.7 16879.1    0.00 16879.1 16859.7   19.42
   15 157    81       0   31829  310404       0  310404  309816   587.7    0.00  1073.7 16878.5    0.00 16878.5 16859.2   19.28
   15 158    82       0   31828  310385       0  310385  309807   577.7    0.00  1073.6 16877.9    0.00 16877.9 16858.8   19.12
   15 159    83       0   31828  310366       0  310366  309798   568.3    0.00  1073.6 16877.2    0.00 16877.2 16858.2   18.97
   15 160    84       0   31827  310347       0  310347  309790   557.0    0.00  1073.6 16876.6    0.00 16876.6 16857.8   18.78
   15 161    85       0   31827  310328       0  310328  309782   546.5    0.00  1073.6 16875.9    0.00 16875.9 16857.4   18.59
   15 162    86       0   31827  310312       0  310312  309775   537.0    0.00  1073.6 16875.4    0.00 16875.4 16857.0   18.42
   15 163    87       0   31826  310297       0  310297  309769   528.2    0.00  1073.6 16874.9    0.00 16874.9 16856.6   18.25
   15 164    88       0   31826  310282       0  310282  309762   520.1    0.00  1073.6 16874.3    0.00 16874.3 16856.2   18.10
   15 165    89       0   31826  310267       0  310267  309755   511.9    0.00  1073.6 16873.8    0.00 16873.8 16855.9   17.93
   15 166    90       0   31825  310251       0  310251  309747   503.9    0.00  1073.5 16873.2    0.00 16873.2 16855.4   17.77
   15 167    91       0   31825  310235       0  310235  309739   496.2    0.00  1073.5 16872.6    0.00 16872.6 16855.0   17.61
   15 168    92       0   31824  310219       0  310219  309731   487.9    0.00  1073.5 16872.0    0.00 16872.0 16854.6   17.44
   15 169    93       0   31824  310204       0  310204  309724   479.9    0.00  1073.5 16871.4    0.00 16871.4 16854.2   17.27
   15 170    94       0   31823  310192       0  310192  309718   473.8    0.00  1073.5 16871.0    0.00 16871.0 16853.8   17.13
   15 171    95       0   31823  310180       0  310180  309712   468.1    0.00  1073.5 16870.5    0.00 16870.5 16853.5   17.00
   15 172    96       0   31823  310170       0  310170  309707   462.5    0.00  1073.5 16870.1    0.00 16870.1 16853.2   16.87
   15 173    97       0   31822  310159       0  310159  309702   457.2    0.00  1073.5 16869.7    0.00 16869.7 16853.0   16.75
   15 174    98       0   31822  310149       0  310149  309697   452.4    0.00  1073.4 16869.3    0.00 16869.3 16852.7   16.64
   15 175    99       0   31822  310139       0  310139  309692   447.6    0.00  1073.4 16868.9    0.00 16868.9 16852.4   16.53
   15 176   100       0   31821  310129       0  310129  309686   442.5    0.00  1073.4 16868.5    0.00 16868.5 16852.1   16.40
   15 177   101       0   31821  310118       0  310118  309681   437.1    0.00  1073.4 16868.1    0.00 16868.1 16851.8   16.27
   15 178   102       0   31821  310107       0  310107  309675   431.7    0.00  1073.4 16867.6    0.00 16867.6 16851.5   16.14
   15 179   103       0   31820  310095       0  310095  309669   426.6    0.00  1073.4 16867.2    0.00 16867.2 16851.1   16.01
   15 180   104       0   31820  310083       0  310083  309662   421.4    0.00  1073.4 16866.6    0.00 16866.6 16850.8   15.88
   15 181   105       0   31819  310070       0  310070  309654   416.0    0.00  1073.4 16866.1    0.00 16866.1 16850.4   15.74
   15 182   106       0   31818  310056       0  310056  309646   410.6    0.00  1073.3 16865.5    0.00 16865.5 16849.9   15.60
   15 183   107       0   31818  310042       0  310042  309637   405.3    0.00  1073.3 16864.9    0.00 16864.9 16849.4   15.46
   15 184   108       0   31817  310028       0  310028  309627   400.3    0.00  1073.3 16864.3    0.00 16864.3 16848.9   15.33
   15 185   109       0   31816  310013       0  310013  309617   395.4    0.00  1073.3 16863.6    0.00 16863.6 16848.4   15.20
   15 186   110       0   31815  309998       0  309998  309607   390.7    0.00  1073.3 16862.9    0.00 16862.9 16847.8   15.07
   15 187   111       0   31815  309982       0  309982  309596   386.2    0.00  1073.2 16862.2    0.00 16862.2 16847.2   14.95
   15 188   112       0   31814  309967       0  309967  309585   382.1    0.00  1073.2 16861.5    0.00 16861.5 16846.6   14.83
   15 189   113       0   31813  309951       0  309951  309574   376.9    0.00  1073.2 16860.7    0.00 16860.7 16846.0   14.69
   15 190   114       0   31812  309934       0  309934  309563   370.7    0.00  1073.2 16860.0    0.00 16860.0 16845.5   14.53
   15 191   115       0   31812  309920       0  309920  309554   365.7    0.00  1073.1 16859.3    0.00 16859.3 16844.9   14.39
   15 192   116       0   31811  309908       0  309908  309546   361.8    0.00  1073.1 16858.8    0.00 16858.8 16844.5   14.28
   15 193   117       0   31811  309897       0  309897  309538   358.6    0.00  1073.1 16858.3    0.00 16858.3 16844.1   14.19
   15 194   118       0   31810  309887       0  309887  309531   355.9    0.00  1073.1 16857.8    0.00 16857.8 16843.7   14.11
   15 195   119       0   31810  309878       0  309878  309524   353.3    0.00  1073.1 16857.3    0.00 16857.3 16843.3   14.04
   15 196   120       0   31809  309867       0  309867  309517   350.6    0.00  1073.1 16856.8    0.00 16856.8 16842.9   13.96
   15 197   121       0   31809  309857       0  309857  309509   348.0    0.00  1073.0 16856.3    0.00 16856.3 16842.4   13.88
   15 198   122       0   31808  309846       0  309846  309500   345.4    0.00  1073.0 16855.7    0.00 16855.7 16841.9   13.81
   15 199   123       0   31808  309834       0  309834  309492   343.0    0.00  1073.0 16855.2    0.00 16855.2 16841.4   13.74
   15 200   124       0   31807  309823       0  309823  309483   340.7    0.00  1073.0 16854.6    0.00 16854.6 16840.9   13.67
   15 201   125       0   31807  309812       0  309812  309474   338.6    0.00  1073.0 16854.0    0.00 16854.0 16840.4   13.61
   15 202   126       0   31806  309801       0  309801  309465   336.6    0.00  1073.0 16853.4    0.00 16853.4 16839.9   13.55
   15 203   127       0   31806  309791       0  309791  309456   334.7    0.00  1072.9 16852.9    0.00 16852.9 16839.4   13.49
   15 204   128       0   31805  309780       0  309780  309447   333.1    0.00  1072.9 16852.3    0.00 16852.3 16838.8   13.44
   15 205   129       0   31805  309770       0  309770  309439   331.3    0.00  1072.9 16851.7    0.00 16851.7 16838.3   13.39
   15 206   130       0   31804  309760       0  309760  309430   329.7    0.00  1072.9 16851.2    0.00 16851.2 16837.8   13.34
   15 207   131       0   31804  309750       0  309750  309422   328.3    0.00  1072.9 16850.7    0.00 16850.7 16837.4   13.30
   15 208   132       0   31803  309742       0  309742  309415   327.2    0.00  1072.9 16850.2    0.00 16850.2 16836.9   13.26
   15 209   133       0   31803  309734       0  309734  309408   325.6    0.00  1072.8 16849.7    0.00 16849.7 16836.5   13.22
   15 210   134       0   31802  309726       0  309726  309402   324.1    0.00  1072.8 16849.3    0.00 16849.3 16836.2   13.17
   15 211   135       0   31802  309719       0  309719  309396   322.7    0.00  1072.8 16848.9    0.00 16848.9 16835.8   13.13
   15 212   136       0   31802  309713       0  309713  309391   321.5    0.00  1072.8 16848.6    0.00 16848.6 16835.5   13.09
   15 213   137       0   31802  309706       0  309706  309386   320.5    0.00  1072.8 16848.2    0.00 16848.2 16835.2   13.06
   15 214   138       0   31801  309700       0  309700  309381   319.6    0.00  1072.8 16847.9    0.00 16847.9 16834.9   13.03
   15 215   139       0   31801  309694       0  309694  309376   318.7    0.00  1072.8 16847.5    0.00 16847.5 16834.5   13.00
   15 216   140       0   31801  309688       0  309688  309370   317.8    0.00  1072.8 16847.2    0.00 16847.2 16834.2   12.98
   15 217   141       0   31800  309681       0  309681  309364   317.0    0.00  1072.8 16846.8    0.00 16846.8 16833.8   12.95
   15 218   142       0   31800  309674       0  309674  309358   316.2    0.00  1072.8 16846.4    0.00 16846.4 16833.4   12.92
   15 219   143       0   31800  309666       0  309666  309351   315.4    0.00  1072.7 16845.9    0.00 16845.9 16833.0   12.90
   15 220   144       0   31799  309658       0  309658  309344   314.6    0.00  1072.7 16845.5    0.00 16845.5 16832.6   12.87
   15 221   145       0   31799  309650       0  309650  309336   313.6    0.00  1072.7 16845.0    0.00 16845.0 16832.1   12.84
   15 222   146       0   31799  309641       0  309641  309329   312.7    0.00  1072.7 16844.4    0.00 16844.4 16831.6   12.81
   15 223   147       0   31798  309633       0  309633  309321   311.9    0.00  1072.7 16843.9    0.00 16843.9 16831.1   12.79
   15 224   148       0   31798  309624       0  309624  309313   311.1    0.00  1072.7 16843.4    0.00 16843.4 16830.7   12.76
   15 225   149       0   31797  309616       0  309616  309305   310.4    0.00  1072.7 16842.9    0.00 16842.9 16830.2   12.74
   15 226   150       0   31797  309607       0  309607  309297   309.7    0.00  1072.6 16842.4    0.00 16842.4 16829.7   12.71
   15 227   151       0   31796  309598       0  309598  309290   308.1    0.00  1072.6 16841.9    0.00 16841.9 16829.2   12.66
   15 228   152       0   31796  309589       0  309589  309282   306.7    0.00  1072.6 16841.4    0.00 16841.4 16828.7   12.62
   15 229   153       0   31796  309579       0  309579  309275   304.3    0.00  1072.6 16840.8    0.00 16840.8 16828.3   12.55
   15 230   154       0   31795  309570       0  309570  309268   302.1    0.00  1072.6 16840.4    0.00 16840.4 16827.9   12.47
   15 231   155       0   31795  309562       0  309562  309262   299.9    0.00  1072.6 16839.9    0.00 16839.9 16827.5   12.40
   15 232   156       0   31794  309555       0  309555  309257   298.2    0.00  1072.6 16839.5    0.00 16839.5 16827.2   12.35
   15 233   157       0   31794  309548       0  309548  309252   296.7    0.00  1072.5 16839.2    0.00 16839.2 16826.9   12.30
   15 234   158       0   31794  309542       0  309542  309247   295.3    0.00  1072.5 16838.8    0.00 16838.8 16826.6   12.25
   15 235   159       0   31793  309536       0  309536  309241   294.1    0.00  1072.5 16838.5    0.00 16838.5 16826.2   12.21
   15 236   160       0   31793  309529       0  309529  309236   292.6    0.00  1072.5 16838.1    0.00 16838.1 16825.9   12.16
   15 237   161       0   31792  309519       0  309519  309230   289.1    0.00  1072.5 16837.6    0.00 16837.6 16825.5   12.05
